[TITLE]     
EPANET     Example     Network     1     
A     simple     example     of     
wall     reactions     are     included.     
[JUNCTIONS]     
1     220.0000     
2     220.0000     
3     220.0000     
4     220.0000     
5     210.0000     
6     210.0000     
7     210.0000     
8     200.0000     
9     200.0000     
[RESERVOIRS]     
10     340.0000     
11     200.0000     H1     
[TANKS]     
[PIPES]     
1     1     2     3200.0000     450.0000     100.0000     0.0000     
2     2     3     1600.0000     350.0000     100.0000     0.0000     
3     3     4     1600.0000     250.0000     100.0000     0.0000     
4     5     6     1600.0000     250.0000     100.0000     0.0000     
5     6     7     1600.0000     300.0000     100.0000     0.0000     
6     8     9     1600.0000     150.0000     100.0000     0.0000     
7     2     5     1600.0000     250.0000     100.0000     0.0000     
8     3     6     1600.0000     300.0000     100.0000     0.0000     
9     4     7     1600.0000     200.0000     100.0000     0.0000     
10     5     8     1600.0000     200.0000     100.0000     0.0000     
11     6     9     1600.0000     150.0000     100.0000     0.0000     
12     3     11     1000.0000     12.0000     100.0000     0.0000     
[PUMPS]     
13     10     1     HEAD     1     
[VALVES]     
[DEMANDS]     
1     1.000000     P1     
2     1.000000     P2     
3     1.000000     P3     
4     1.000000     P4     
5     1.000000     P5     
6     1.000000     P6     
7     1.000000     P7     
8     1.000000     P8     
9     1.000000     P9     
[EMITTERS]     
[STATUS]     
[PATTERNS]     
1     1.0000     1.0000     1.0000     1.0000     1.0000     1.0000     
1     1.0000     1.0000     1.0000     1.0000     1.0000     1.0000     
P1     0.0000     0.0000     0.0000     0.0000     0.0000     0.0000     
P1     0.0000     0.0000     0.0000     0.0000     0.0000     0.0000     
P1     0.0000     0.0000     0.0000     0.0000     0.0000     0.0000     
P1     0.0000     0.0000     0.0000     0.0000     0.0000     0.0000     
P1     0.0000     0.0000     0.0000     0.0000     0.0000     0.0000     
P1     0.0000     0.0000     0.0000     0.0000     0.0000     0.0000     
P1     0.0000     0.0000     0.0000     0.0000     0.0000     0.0000     
P1     0.0000     0.0000     0.0000     0.0000     0.0000     0.0000     
P1     0.0000     0.0000     0.0000     0.0000     0.0000     0.0000     
P1     0.0000     0.0000     0.0000     0.0000     0.0000     0.0000     
P1     0.0000     0.0000     0.0000     0.0000     0.0000     0.0000     
P1     0.0000     0.0000     0.0000     0.0000     0.0000     0.0000     
P1     0.0000     0.0000     0.0000     0.0000     0.0000     0.0000     
P1     0.0000     0.0000     0.0000     0.0000     0.0000     0.0000     
P1     0.0000     0.0000     0.0000     0.0000     0.0000     0.0000     
P1     0.0000     0.0000     0.0000     0.0000     0.0000     0.0000     
P1     0.0000     0.0000     0.0000     0.0000     0.0000     0.0000     
P1     0.0000     0.0000     0.0000     0.0000     0.0000     0.0000     
P1     0.0000     0.0000     0.0000     0.0000     0.0000     0.0000     
P1     0.0000     0.0000     0.0000     0.0000     0.0000     0.0000     
P1     0.0000     0.0000     0.0000     0.0000     0.0000     0.0000     
P1     0.0000     0.0000     0.0000     0.0000     0.0000     0.0000     
P1     0.0000     0.0000     0.0000     0.0000     0.0000     0.0000     
P1     0.0000     0.0000     0.0000     0.0000     0.0000     0.0000     
P1     0.0000     0.0000     0.0000     0.0000     0.0000     0.0000     
P1     0.0000     0.0000     0.0000     0.0000     0.0000     0.0000     
P1     0.0000     0.0000     0.0000     0.0000     0.0000     0.0000     
P1     0.0000     0.0000     0.0000     0.0000     0.0000     0.0000     
P1     0.0000     0.0000     0.0000     0.0000     0.0000     0.0000     
P1     0.0000     0.0000     0.0000     0.0000     0.0000     0.0000     
P1     0.0000     0.0000     0.0000     0.0000     0.0000     0.0000     
P1     0.0000     0.0000     0.0000     0.0000     0.0000     0.0000     
P1     0.0000     0.0000     0.0000     0.0000     0.0000     0.0000     
P1     0.0000     0.0000     0.0000     0.0000     0.0000     0.0000     
P1     0.0000     0.0000     0.0000     0.0000     0.0000     0.0000     
P1     0.0000     0.0000     0.0000     0.0000     0.0000     0.0000     
P1     0.0000     0.0000     0.0000     0.0000     0.0000     0.0000     
P1     0.0000     0.0000     0.0000     0.0000     0.0000     0.0000     
P1     0.0000     0.0000     0.0000     0.0000     0.0000     0.0000     
P1     0.0000     0.0000     0.0000     0.0000     0.0000     0.0000     
P1     0.0000     0.0000     0.0000     0.0000     0.0000     0.0000     
P1     0.0000     0.0000     0.0000     0.0000     0.0000     0.0000     
P1     0.0000     0.0000     0.0000     0.0000     0.0000     0.0000     
P1     0.0000     0.0000     0.0000     0.0000     0.0000     0.0000     
P1     0.0000     0.0000     0.0000     0.0000     0.0000     0.0000     
P1     0.0000     0.0000     0.0000     0.0000     0.0000     0.0000     
P1     0.0000     0.0000     0.0000     0.0000     0.0000     0.0000     
P1     0.0000     0.0000     0.0000     0.0000     0.0000     0.0000     
P2     35.5638     35.8617     37.3094     36.1282     38.9311     40.4786     
P2     35.7563     38.7857     41.9909     43.3516     40.9403     37.6944     
P2     43.4110     37.7452     42.2444     46.0764     39.5350     40.6276     
P2     40.1667     42.4078     39.9218     41.9485     43.3343     45.7421     
P2     40.2066     42.1380     43.1978     40.9591     42.6369     36.8709     
P2     44.5351     40.8071     40.9306     42.5136     38.7696     41.8447     
P2     39.2244     36.5543     41.6760     40.6778     42.0501     40.3699     
P2     34.3174     34.0246     34.8506     37.2986     37.8803     32.5728     
P2     35.5583     34.4956     38.0151     28.7545     30.8778     36.9078     
P2     36.2880     33.7165     37.6957     33.0994     33.4149     28.4663     
P2     29.3380     31.2301     34.2247     32.9173     32.6999     36.1199     
P2     36.1432     35.5561     33.5544     34.7466     34.9239     35.0000     
P2     35.1276     35.1566     35.9384     35.4501     34.7914     35.5049     
P2     37.8909     35.8938     34.9673     34.7770     32.2231     38.9651     
P2     33.0027     32.9211     37.9453     39.4852     35.4260     31.3567     
P2     36.7280     39.6873     37.7709     35.4668     35.9907     36.6093     
P2     33.2568     36.9098     33.5266     39.2683     33.1762     33.2396     
P2     32.6745     30.2574     36.3351     30.5009     27.1137     29.4575     
P2     33.3414     34.4518     28.5311     34.2175     28.3014     28.8245     
P2     30.6534     24.4140     23.8718     23.3978     27.1521     28.2675     
P2     29.6571     31.5368     25.7198     22.9929     30.0177     28.6582     
P2     21.1461     28.5266     25.5145     27.9189     29.7247     28.2873     
P2     34.1807     31.5375     28.2028     30.0130     34.2839     33.1247     
P2     33.3897     34.0307     33.6796     34.0900     34.0865     35.0000     
P2     36.0281     36.2644     36.6002     37.2473     39.0552     38.8807     
P2     38.9871     42.2652     42.6757     41.5596     37.3815     40.4881     
P2     41.4412     42.3087     40.5552     41.0383     42.2711     41.5242     
P2     38.3538     46.8346     43.6363     43.4969     41.6115     38.9534     
P2     40.8786     39.6735     35.6374     44.0596     37.6607     46.9753     
P2     42.3761     40.6195     36.9301     42.6606     41.1909     40.8366     
P2     36.1729     39.6527     35.5764     43.1792     38.7446     39.5765     
P2     35.8041     34.7709     36.8315     35.4739     32.7297     41.5120     
P2     34.8049     32.2079     33.2378     33.4765     32.5596     34.1793     
P2     28.1782     28.3560     38.0202     36.4820     33.3602     37.6899     
P2     31.2019     37.0341     30.1090     36.9737     32.9418     33.0061     
P2     33.2317     33.3359     35.7711     35.1379     34.6628     35.0000     
P2     34.9073     36.3355     36.6674     35.2164     34.7961     36.7200     
P2     38.0479     37.8621     33.5233     37.6388     32.4453     36.7775     
P2     38.9911     37.6678     35.4528     34.8965     36.4911     40.2762     
P2     39.9670     37.5012     36.6327     34.8607     36.7261     37.4229     
P2     32.1322     35.9565     32.0440     29.0666     35.7769     32.8216     
P2     32.7228     35.5591     33.5936     34.7618     30.8174     29.6157     
P2     28.2292     26.3377     26.2217     31.5786     34.2772     33.6961     
P2     24.3664     29.4125     30.7033     26.5635     29.6491     25.9906     
P2     29.7263     30.0773     21.1944     29.4629     30.7624     33.5776     
P2     32.7987     28.3704     28.0740     29.7378     26.0824     33.7062     
P2     28.3311     28.1409     29.6913     28.9809     30.3442     32.6921     
P2     31.6290     32.7027     32.1686     34.1817     34.0795     35.0000     
P3     35.2009     35.5983     36.5690     36.6832     37.0784     40.1842     
P3     36.8745     36.3410     41.5255     41.4167     39.2998     38.3729     
P3     39.5564     41.5860     36.4176     43.9483     40.4148     37.2209     
P3     44.5231     38.6878     42.2001     40.8279     45.9718     41.1771     
P3     44.7442     46.1853     41.2734     42.3963     46.7917     38.8713     
P3     45.1105     43.7564     35.0754     39.4405     40.3431     37.8634     
P3     34.7017     37.4917     35.0917     37.3205     38.5272     34.5241     
P3     34.4257     35.4630     30.6216     33.4788     33.7041     37.4336     
P3     29.8283     34.7873     31.9543     34.7459     34.2349     33.7145     
P3     38.4326     30.3927     31.0253     31.2652     29.8834     35.9782     
P3     37.7732     32.0761     36.7811     34.8238     33.7665     34.6730     
P3     34.6530     33.9192     33.8690     33.8973     35.0862     35.0000     
P3     35.2685     35.6094     34.3731     36.8081     33.9369     35.2245     
P3     36.8922     34.5312     37.9695     34.1412     39.9187     41.4980     
P3     35.5505     39.5608     32.0336     34.4583     34.0335     39.3658     
P3     32.2340     30.9709     30.9461     29.1376     34.5525     31.9836     
P3     35.2874     36.0910     28.2893     33.2192     33.0032     34.4464     
P3     30.2229     33.3478     29.9949     29.3466     29.0772     30.4050     
P3     33.7516     28.3868     27.7701     31.6467     33.8365     27.1647     
P3     30.6768     28.1592     30.8366     28.5204     25.7232     23.3885     
P3     26.2820     24.4662     26.0858     25.4677     25.8948     30.6298     
P3     28.6597     28.8912     28.3725     28.5792     26.4513     28.9025     
P3     32.8811     28.0521     31.0296     28.9742     32.4016     31.1626     
P3     33.3472     31.2360     32.5511     33.2731     34.2617     35.0000     
P3     35.5379     36.2670     37.9689     37.0014     37.9137     40.6483     
P3     40.3248     38.9477     37.1590     41.6106     36.3526     40.8278     
P3     46.2525     42.9772     46.8254     42.9065     39.0001     43.0657     
P3     39.4200     39.8540     37.6891     43.9234     39.9241     38.3421     
P3     39.3970     40.6234     42.5516     44.7661     42.2678     43.7264     
P3     40.3276     39.7390     42.6864     38.5498     39.1634     43.5585     
P3     36.0746     40.9641     36.8562     34.2159     38.5856     32.2004     
P3     35.3702     32.2990     35.5905     36.7784     34.7064     34.0346     
P3     30.7093     36.7397     34.4892     27.3070     35.1315     31.0409     
P3     30.3234     33.3962     39.5834     37.2041     29.9840     30.9014     
P3     32.4954     33.7448     36.5724     34.9296     34.9957     35.6981     
P3     35.3263     33.5929     34.3490     34.5859     34.5861     35.0000     
P3     35.5589     36.0453     34.8473     34.7964     35.4576     35.5241     
P3     34.1877     33.9150     36.1997     36.2335     36.2804     35.5530     
P3     34.1049     34.4993     35.3838     30.5462     38.8786     41.9570     
P3     33.2483     29.2323     38.8360     33.1877     31.9998     31.8499     
P3     31.3765     33.7945     30.5142     28.0607     28.6369     34.1377     
P3     30.2814     30.4319     29.1199     28.1628     26.8894     29.2143     
P3     29.2197     32.7503     25.1580     28.9619     32.3793     29.5987     
P3     28.3744     28.0129     26.6182     29.9844     26.6911     26.5747     
P3     27.9484     25.0615     27.1243     28.9290     32.7811     29.0436     
P3     27.6547     25.4798     26.1011     27.8623     33.2798     27.5971     
P3     24.6660     29.8731     31.7532     29.6080     31.4769     30.5319     
P3     32.2663     32.5994     32.0098     34.5771     34.5339     35.0000     
P4     20.2294     20.6283     21.8417     21.5985     21.9584     22.6125     
P4     20.8830     24.2034     22.8861     22.5530     22.2485     23.6335     
P4     26.8170     21.6804     20.7024     23.6368     25.4975     25.3100     
P4     24.4888     25.0495     21.6858     26.4211     24.7324     21.4964     
P4     21.5700     25.6857     23.6138     25.5745     26.2352     24.0236     
P4     25.6237     23.8848     23.0353     25.1548     25.1042     24.0874     
P4     21.4329     20.6789     23.3622     21.0627     20.7619     21.7057     
P4     19.4574     21.3642     20.7635     19.2669     20.8432     18.2018     
P4     20.8729     22.6374     21.7420     21.2833     21.0485     19.2818     
P4     19.0730     17.1066     18.7610     20.2631     19.2105     20.0870     
P4     16.9126     21.6309     17.8093     18.1084     19.3782     19.9864     
P4     19.2674     18.8010     19.2492     19.4316     19.8426     20.0000     
P4     20.2314     20.1540     20.7070     20.5141     20.4770     19.6474     
P4     21.0086     20.8551     21.7990     20.0867     21.2351     20.9134     
P4     21.3640     21.1324     23.3212     17.5395     17.2566     23.8727     
P4     21.7256     22.8382     19.7822     19.1141     18.5320     16.5047     
P4     19.2508     19.0020     18.1290     21.6246     17.8549     21.3812     
P4     19.7783     19.6474     16.9416     16.3647     15.4061     19.0436     
P4     15.0155     15.1892     14.8760     18.9103     19.0043     14.3459     
P4     15.2057     17.2265     14.3223     14.7992     14.7071     14.5803     
P4     14.9030     16.4977     17.1411     18.7032     14.4702     15.0386     
P4     16.6251     16.2736     14.7006     16.4553     16.5897     16.6953     
P4     15.0673     19.1594     16.3933     18.8708     18.5229     18.1143     
P4     17.6761     19.5174     19.2452     19.1834     19.5746     20.0000     
P4     20.3468     20.8432     20.8653     21.0530     21.4480     22.7061     
P4     21.7716     23.7241     24.6844     24.8582     21.9313     23.6262     
P4     23.3303     21.3152     22.4461     23.8255     24.7318     21.7975     
P4     26.5957     23.5313     27.7132     24.4726     21.9169     27.9983     
P4     24.5846     22.6736     21.9456     23.1730     24.9854     24.8335     
P4     25.0312     22.4574     21.7548     23.7255     22.4915     20.5854     
P4     23.0659     22.2011     22.4720     24.2941     22.9767     23.4100     
P4     20.5360     21.3217     18.5943     19.4382     19.6678     20.4081     
P4     21.4300     23.7900     20.4392     18.5344     18.3585     17.6502     
P4     17.9277     20.2203     17.3485     19.8467     19.6190     17.3555     
P4     18.7272     19.4350     20.3185     20.8725     18.5152     17.9586     
P4     20.1507     19.9426     19.6948     20.0060     20.0889     20.0000     
P4     20.2148     19.9998     20.4503     21.2310     20.9920     21.5346     
P4     20.3998     20.1057     21.6808     20.5477     23.4130     19.4209     
P4     20.9506     22.8223     22.5940     17.6336     20.1390     19.1642     
P4     20.0048     21.4402     21.3154     21.7960     20.2065     17.8214     
P4     21.5733     21.7047     15.8555     15.7780     15.8057     16.2506     
P4     20.3098     19.1236     15.7496     17.3282     18.4659     16.6983     
P4     14.6974     16.0278     17.3650     19.4536     17.7737     18.7179     
P4     16.4313     15.0882     15.6007     14.1390     17.0532     15.7265     
P4     14.0901     15.7671     13.1919     13.3724     17.5268     13.6934     
P4     16.2832     12.6838     15.2768     13.9337     15.9433     16.6893     
P4     18.1107     19.0398     16.9169     17.0998     16.9944     17.0456     
P4     18.7155     18.9163     19.0439     18.8902     19.7292     20.0000     
P5     35.4433     36.0003     37.5776     38.6197     37.9515     39.2737     
P5     37.2264     37.6610     36.7966     39.8963     40.1930     41.2887     
P5     39.4467     36.7615     45.6047     46.7125     44.3024     41.3251     
P5     46.4188     46.6757     45.7181     42.7516     45.3482     43.2526     
P5     46.2677     46.3393     37.0775     44.9599     36.1310     38.7259     
P5     37.8010     41.6292     42.4890     44.5354     35.7276     36.5192     
P5     38.2884     37.5194     39.5042     35.9181     42.3066     39.1508     
P5     40.8566     38.3878     35.0616     38.9716     30.5263     32.5203     
P5     35.8530     32.6064     34.2649     27.1767     29.5784     30.9930     
P5     33.2050     36.5728     31.2893     36.4777     29.1832     35.5904     
P5     31.3816     35.5392     31.2794     31.1543     32.3960     34.3506     
P5     35.5229     34.6134     34.9407     34.8410     34.4540     35.0000     
P5     35.7116     36.0872     36.4023     36.5548     34.9493     36.3532     
P5     33.4002     37.6563     36.2974     33.0858     33.2554     35.3185     
P5     37.8361     36.8469     30.8307     38.0580     32.3856     34.9089     
P5     33.3104     36.4066     36.2439     30.7764     35.2873     32.9635     
P5     32.4741     33.1689     36.6065     38.4255     34.2052     32.1684     
P5     33.1536     32.7638     31.4975     31.8348     29.2084     30.5208     
P5     30.2512     30.5969     27.3877     25.4287     34.2072     28.0470     
P5     25.8228     30.7297     27.2528     27.5121     32.0827     31.8277     
P5     23.7050     25.1097     26.0090     31.8696     26.9591     28.0619     
P5     29.6420     29.4265     29.6724     24.1310     25.8527     29.0160     
P5     30.4048     26.3645     27.4520     29.1227     28.0850     30.5155     
P5     32.6571     33.5541     32.7197     34.6432     34.4474     35.0000     
P5     35.7477     35.7829     36.5605     36.5984     37.9827     35.5635     
P5     36.6882     37.8901     41.2575     44.5892     42.6473     38.7652     
P5     40.6380     38.7895     42.0540     44.6658     39.8322     36.3979     
P5     45.1423     43.9817     41.4211     42.0099     42.7210     45.9616     
P5     36.7524     46.0169     39.4375     41.3759     44.3644     41.0693     
P5     43.4861     43.2216     37.6948     38.9373     38.9480     42.6066     
P5     41.1791     41.1772     39.8911     37.8395     34.6863     36.1637     
P5     35.8841     34.7556     39.5765     35.1184     39.1426     35.1526     
P5     35.6837     39.9499     35.4721     34.0112     36.0529     35.2699     
P5     37.6076     29.8927     37.2626     35.6539     34.3012     35.4949     
P5     30.2609     34.9645     33.3372     31.4874     32.1640     33.7218     
P5     35.6058     33.4325     34.6993     34.1882     34.4686     35.0000     
P5     35.1296     35.8331     36.0265     34.5622     35.2457     36.2699     
P5     38.1272     35.2745     36.2347     40.2352     33.3299     38.2513     
P5     40.8020     38.1346     42.2064     33.7156     39.9748     33.1077     
P5     31.8965     35.3500     30.7085     39.5862     35.4571     32.1989     
P5     36.8831     34.3850     32.9587     36.3892     33.0460     29.5523     
P5     30.3098     31.1076     32.7847     35.7370     33.4731     29.0458     
P5     30.5108     31.6968     32.7265     33.2279     24.1005     32.2017     
P5     28.7784     30.8075     21.9838     28.6600     28.1965     28.9040     
P5     28.8143     27.3230     32.4010     28.8823     33.3212     20.9174     
P5     29.7959     24.3000     28.6340     26.5044     23.0147     24.7041     
P5     28.2363     30.2331     32.0879     34.0059     28.8337     31.0423     
P5     32.7420     33.1496     33.2681     34.8294     34.6163     35.0000     
P6     45.5704     47.0749     46.6069     50.1818     47.8266     47.1834     
P6     48.7834     49.9198     54.6819     49.5994     51.9858     51.3004     
P6     55.1504     51.9166     57.5854     51.9479     55.6636     57.2698     
P6     57.7915     55.3631     58.7220     55.3954     54.5712     58.2350     
P6     45.6388     53.3236     58.4402     45.5719     55.6029     56.7322     
P6     57.2132     47.7218     53.2198     56.7343     53.8223     52.6063     
P6     46.4835     54.5027     43.3663     45.3703     48.2856     42.4229     
P6     46.0771     41.2682     44.2689     46.1557     52.3312     40.6765     
P6     49.8843     38.0067     39.2270     46.8364     50.9448     42.5152     
P6     42.6525     42.9522     46.2198     40.9767     38.8171     41.9026     
P6     41.2916     38.0232     40.7734     39.8070     41.4067     44.7417     
P6     45.5498     43.8408     42.3567     44.8873     44.6244     45.0000     
P6     44.8915     45.5354     44.8128     47.8120     44.6052     47.2795     
P6     48.2029     49.4602     45.1223     50.4959     48.7288     43.2929     
P6     48.6881     49.2164     51.1376     45.0172     51.6625     52.6854     
P6     46.5125     49.0076     42.0024     39.8953     45.9789     42.8162     
P6     39.0666     45.2594     47.0495     42.3637     48.6939     44.4547     
P6     36.5546     40.8595     41.4785     37.3890     43.6864     36.5813     
P6     36.0790     39.1840     41.8697     41.6348     35.1701     33.2829     
P6     33.9464     29.6634     37.6898     31.1320     34.1477     35.3123     
P6     37.8747     41.3074     38.5993     34.9126     35.3989     34.1108     
P6     28.8350     34.3705     36.8122     40.4976     36.9045     36.5733     
P6     35.4168     35.4971     42.1501     39.2439     40.0017     40.6344     
P6     39.5579     42.2448     44.4862     44.7819     44.1262     45.0000     
P6     45.5981     45.3842     48.3116     49.1693     51.3604     48.0686     
P6     47.4257     54.2578     46.3097     47.6040     51.3983     56.6957     
P6     54.4036     55.6371     59.3387     55.0177     52.5460     51.5850     
P6     49.2310     52.7270     55.6444     57.5340     51.4659     56.7662     
P6     59.1201     53.8352     58.3859     53.6030     55.6399     53.6407     
P6     52.6253     56.0353     50.1768     54.6427     50.7801     51.3884     
P6     46.9419     49.1102     53.8244     44.1619     54.2775     44.0383     
P6     49.3363     51.8028     45.5597     43.5664     49.6098     45.1025     
P6     44.8814     49.4966     37.4013     41.8341     37.5602     47.0582     
P6     43.3670     41.2945     40.9044     43.7423     47.8938     37.4915     
P6     43.4600     44.5726     46.0227     42.3316     45.4335     40.2799     
P6     46.2137     45.9664     44.4965     43.4038     44.9197     45.0000     
P6     44.8477     45.7436     46.8594     46.1690     46.5037     46.5757     
P6     48.3200     50.1532     48.4053     48.1103     49.9950     42.8827     
P6     49.0806     44.5765     48.4315     40.6091     48.8996     46.7825     
P6     38.0494     44.6551     38.5392     48.3719     48.1828     48.7986     
P6     42.3740     43.0317     43.3193     45.6094     48.3903     42.2138     
P6     42.1790     41.6788     41.2004     46.7283     37.6919     35.4302     
P6     39.0147     43.7753     39.7041     37.1999     41.6521     35.5143     
P6     36.4310     38.6778     34.9841     39.9096     36.0579     36.5982     
P6     43.0338     32.2793     37.2364     29.4508     33.6603     32.8193     
P6     32.4890     34.0571     38.7016     36.4105     30.4254     32.1594     
P6     38.0966     34.6620     39.4916     39.3367     37.4162     40.7499     
P6     43.6705     41.6446     42.4889     43.2596     43.9164     45.0000     
P7     35.7722     35.3751     35.8087     35.7347     38.8304     37.4783     
P7     38.3184     40.5696     40.9748     40.9332     39.4265     41.5694     
P7     42.0586     39.7279     41.2792     37.3426     41.1361     42.7645     
P7     45.2420     39.2153     38.5117     41.8735     41.8627     41.8184     
P7     35.7109     43.9001     40.3573     38.3913     40.2060     39.2947     
P7     43.7060     37.4699     39.6240     39.4939     42.9286     42.6615     
P7     35.3725     42.6303     37.2966     37.4768     40.0101     39.9855     
P7     36.7601     34.8352     40.0837     36.4906     33.5359     35.6155     
P7     34.8785     38.7575     32.8102     36.0071     33.1641     40.6236     
P7     34.4945     38.5079     32.7418     37.9438     33.7047     37.0481     
P7     34.8849     34.3129     35.7105     32.4579     30.8845     34.2216     
P7     36.5323     36.2209     33.1433     34.8265     34.9161     35.0000     
P7     35.1936     35.5435     35.3624     34.5041     33.3384     38.3991     
P7     36.3624     35.7844     34.4934     36.1585     40.5768     33.2204     
P7     38.7925     39.2015     38.5554     38.5643     37.3372     37.1229     
P7     39.0937     36.9934     36.6290     36.9695     32.1768     38.0883     
P7     31.6684     37.9763     32.6838     31.9534     35.7025     30.7690     
P7     29.8546     28.9662     33.2561     31.7259     32.8235     31.3265     
P7     31.9352     33.7825     26.4151     28.9505     31.1298     25.3040     
P7     26.8097     28.1016     28.3618     32.7367     30.6566     31.0825     
P7     21.2548     26.7667     32.2621     32.4249     34.4775     31.9219     
P7     26.1474     31.9449     31.3115     27.0287     30.4488     31.4901     
P7     30.6032     29.1681     26.7756     31.8984     31.5282     32.6638     
P7     33.7139     32.6809     31.9963     33.8797     34.6359     35.0000     
P7     35.8221     36.1110     37.3117     35.7060     36.3509     35.5587     
P7     41.2874     36.9950     37.6592     41.4979     43.2927     37.4690     
P7     41.8313     43.2753     43.6894     43.0814     41.8718     41.3234     
P7     44.6459     46.1039     45.7654     38.7724     40.0070     36.4013     
P7     46.3172     48.1908     36.1200     46.7275     45.1366     43.7395     
P7     41.2744     40.3539     39.5659     35.7671     35.6181     36.0513     
P7     37.8858     39.5807     36.4713     38.6998     34.8551     32.0570     
P7     34.7381     33.9412     40.0460     34.0309     38.7301     39.0413     
P7     35.2837     34.9535     35.2722     34.6746     35.8590     32.2698     
P7     35.4835     36.6169     33.3061     37.0061     38.1193     30.9453     
P7     31.8586     30.6116     32.2304     33.8914     33.6305     32.9016     
P7     35.0795     33.4506     35.0359     34.0222     34.9258     35.0000     
P7     35.3698     34.4809     34.8335     35.3176     34.7782     36.7546     
P7     38.0331     36.7830     35.0831     36.2635     33.9673     38.7265     
P7     36.6839     34.4440     38.1606     40.2050     39.0384     35.6498     
P7     37.3914     32.0845     38.2793     34.5422     35.2953     37.2717     
P7     36.5724     36.3457     34.2723     35.8824     33.2274     31.9331     
P7     33.0124     32.2418     35.5961     28.5277     32.4799     34.6735     
P7     32.4881     27.2398     32.3169     30.5083     30.1067     33.1370     
P7     33.6420     28.3426     24.4121     27.1205     27.9214     24.4053     
P7     25.4564     25.3991     28.5409     30.0390     26.9970     26.2360     
P7     31.3194     22.9877     30.6400     34.1908     24.4425     28.3011     
P7     30.6655     33.1904     30.9824     30.7107     30.9315     31.3226     
P7     32.5116     31.0651     33.9268     33.7046     34.0613     35.0000     
P8     20.3128     20.8538     21.5525     21.0447     20.6154     20.9410     
P8     22.1489     21.2508     21.3642     22.0941     25.1485     25.8422     
P8     24.4162     22.2956     22.7769     24.9586     26.3023     24.2806     
P8     21.6290     27.5691     23.0302     24.0948     27.4409     23.3172     
P8     24.9401     27.7866     25.2118     25.3069     21.3462     24.6875     
P8     24.3797     21.4262     24.3035     24.7953     24.3585     23.7858     
P8     21.9885     21.8230     22.5300     21.7446     21.9341     21.8973     
P8     22.8352     19.0229     22.6578     21.3718     19.2544     21.7961     
P8     15.7948     20.0814     18.4034     17.3958     21.1491     20.5261     
P8     19.5571     17.3405     21.3793     19.9999     18.5319     18.8770     
P8     19.5895     17.2973     16.8770     19.6572     19.9134     18.7744     
P8     19.8824     19.7231     20.1659     19.5808     20.0357     20.0000     
P8     19.9717     20.2744     20.4799     20.1917     20.3410     19.6820     
P8     21.3807     19.8188     20.3728     20.4115     21.6553     22.3999     
P8     22.4607     19.3774     23.5011     18.6349     23.4227     22.2963     
P8     18.4865     19.4262     23.2563     21.3513     16.0283     17.6740     
P8     17.7263     22.9974     20.2472     20.8414     19.4624     18.7372     
P8     19.8322     19.2581     16.7240     16.0334     20.0088     16.3126     
P8     19.5402     16.5472     17.9333     16.0932     18.2802     14.6914     
P8     16.7722     14.9024     15.8616     16.6378     14.2247     16.7084     