[TITLE]
EPANET     Example     Network     3     
Example     showing     how     the     
system     changes     over     time.     

[JUNCTIONS]
;ID              	Elev        	Demand      	Pattern         
 10              	44.8056     	0.000000    	1               	;
 15              	9.7536      	0.227120    	3               	;
 20              	39.3192     	0.000000    	1               	;
 35              	3.8100      	0.227120    	4               	;
 40              	40.2031     	0.000000    	1               	;
 50              	35.5092     	0.000000    	1               	;
 60              	0.0000      	0.000000    	1               	;
 601             	0.0000      	0.000000    	1               	;
 61              	0.0000      	0.000000    	1               	;
 101             	12.8016     	43.142300   	1               	;
 103             	13.1064     	30.253000   	1               	;
 105             	8.6868      	30.745900   	1               	;
 107             	6.7056      	12.410100   	1               	;
 109             	6.1874      	52.556700   	1               	;
 111             	3.0480      	32.238100   	1               	;
 113             	0.6096      	4.544800    	1               	;
 115             	4.2672      	11.833200   	1               	;
 117             	4.1453      	26.734800   	1               	;
 119             	0.6096      	40.003500   	1               	;
 120             	0.0000      	0.000000    	1               	;
 121             	-0.6096     	9.455200    	1               	;
 123             	3.3528      	0.227120    	2               	;
 125             	3.3528      	10.356900   	1               	;
 127             	17.0688     	4.011000    	1               	;
 129             	15.5448     	0.000000    	1               	;
 131             	1.8288      	9.709600    	1               	;
 139             	9.4488      	1.337800    	1               	;
 141             	1.2192      	2.237200    	1               	;
 143             	-1.3716     	1.408200    	1               	;
 145             	0.3048      	6.275500    	1               	;
 147             	5.6388      	1.941900    	1               	;
 149             	4.8768      	6.148300    	1               	;
 151             	10.2108     	32.815000   	1               	;
 153             	20.1778     	10.032100   	1               	;
 157             	3.9929      	11.762800   	1               	;
 159             	1.8288      	9.384800    	1               	;
 161             	1.2192      	3.588600    	1               	;
 163             	1.5240      	2.139500    	1               	;
 164             	1.5240      	0.000000    	1               	;
 166             	-0.6096     	0.590520    	1               	;
 167             	-1.5240     	3.306900    	1               	;
 169             	-1.5240     	0.000000    	1               	;
 171             	-1.2192     	8.935100    	1               	;
 173             	-1.2192     	0.000000    	1               	;
 177             	2.4384      	13.211800   	1               	;
 179             	2.4384      	0.000000    	1               	;
 181             	2.4384      	0.000000    	1               	;
 183             	3.3528      	0.000000    	1               	;
 184             	4.8768      	0.000000    	1               	;
 185             	4.8768      	5.825700    	1               	;
 187             	3.8100      	0.000000    	1               	;
 189             	1.2192      	24.511300   	1               	;
 191             	7.6200      	18.601500   	1               	;
 193             	5.4864      	16.196300   	1               	;
 195             	4.7244      	0.000000    	1               	;
 197             	7.0104      	3.870200    	1               	;
 199             	-0.6096     	27.100500   	1               	;
 201             	0.0305      	10.132000   	1               	;
 203             	0.6096      	0.227120    	5               	;
 204             	6.4008      	0.000000    	1               	;
 205             	6.4008      	14.844900   	1               	;
 206             	0.3048      	0.000000    	1               	;
 207             	2.7432      	15.760200   	1               	;
 208             	4.8768      	0.000000    	1               	;
 209             	-0.6096     	0.197600    	1               	;
 211             	2.1336      	1.969200    	1               	;
 213             	2.1336      	3.166100    	1               	;
 215             	2.1336      	20.938600   	1               	;
 217             	1.8288      	5.501000    	1               	;
 219             	1.2192      	9.384800    	1               	;
 225             	2.4384      	5.178400    	1               	;
 229             	3.2004      	14.576900   	1               	;
 231             	1.5240      	3.743000    	1               	;
 237             	4.2672      	3.545400    	1               	;
 239             	3.9624      	10.132000   	1               	;
 241             	3.9624      	0.000000    	1               	;
 243             	4.2672      	0.985720    	1               	;
 247             	5.4864      	15.985000   	1               	;
 249             	5.4864      	0.000000    	1               	;
 251             	9.1440      	5.487300    	1               	;
 253             	10.9728     	12.382800   	1               	;
 255             	8.2296      	9.173600    	1               	;
 257             	5.1816      	0.000000    	1               	;
 259             	7.6200      	0.000000    	1               	;
 261             	0.0000      	0.000000    	1               	;
 263             	0.0000      	0.000000    	1               	;
 265             	0.0000      	0.000000    	1               	;
 267             	6.4008      	0.000000    	1               	;
 269             	0.0000      	0.000000    	1               	;
 271             	1.8288      	0.000000    	1               	;
 273             	2.4384      	0.000000    	1               	;
 275             	3.0480      	0.000000    	1               	;

[RESERVOIRS]
;ID              	Head        	Pattern         
 River           	120         	                	;
 Lake            	80          	                	;
 3               	50          	                	;
 4               	50          	                	;
 5               	50          	                	;

[TANKS]
;ID              	Elevation   	InitLevel   	MinLevel    	MaxLevel    	Diameter    	MinVol      	VolCurve

[PIPES]
;ID              	Node1           	Node2           	Length      	Diameter    	Roughness   	MinorLoss   	Status
 60              	River           	60              	375.2088    	609.6000    	140.0000    	0.0000      	Open  	;
 101             	10              	101             	4328.1600   	457.2000    	110.0000    	0.0000      	Open  	;
 103             	101             	103             	411.4800    	406.4000    	130.0000    	0.0000      	Open  	;
 105             	101             	105             	774.1920    	304.8000    	130.0000    	0.0000      	Open  	;
 107             	105             	107             	448.0560    	304.8000    	130.0000    	0.0000      	Open  	;
 109             	103             	109             	1200.9120   	406.4000    	130.0000    	0.0000      	Open  	;
 111             	109             	111             	609.6000    	304.8000    	130.0000    	0.0000      	Open  	;
 112             	115             	111             	353.5680    	304.8000    	130.0000    	0.0000      	Open  	;
 113             	111             	113             	512.0640    	304.8000    	130.0000    	0.0000      	Open  	;
 114             	115             	113             	609.6000    	203.2000    	130.0000    	0.0000      	Open  	;
 115             	107             	115             	594.3600    	203.2000    	130.0000    	0.0000      	Open  	;
 116             	113             	193             	505.9680    	304.8000    	130.0000    	0.0000      	Open  	;
 117             	263             	105             	830.5800    	304.8000    	130.0000    	0.0000      	Open  	;
 119             	115             	117             	664.4640    	304.8000    	130.0000    	0.0000      	Open  	;
 120             	119             	120             	222.5040    	304.8000    	130.0000    	0.0000      	Open  	;
 121             	120             	117             	569.9760    	304.8000    	130.0000    	0.0000      	Open  	;
 122             	121             	120             	624.8400    	203.2000    	130.0000    	0.0000      	Open  	;
 123             	121             	119             	609.6000    	762.0000    	141.0000    	0.0000      	Open  	;
 125             	123             	121             	457.2000    	762.0000    	141.0000    	0.0000      	Open  	;
 129             	121             	125             	283.4640    	609.6000    	130.0000    	0.0000      	Open  	;
 131             	125             	127             	987.5520    	609.6000    	130.0000    	0.0000      	Open  	;
 133             	20              	127             	239.2680    	508.0000    	130.0000    	0.0000      	Open  	;
 135             	127             	129             	274.3200    	609.6000    	130.0000    	0.0000      	Open  	;
 137             	129             	131             	1975.1040   	406.4000    	130.0000    	0.0000      	Open  	;
 145             	129             	139             	838.2000    	203.2000    	130.0000    	0.0000      	Open  	;
 147             	139             	141             	624.8400    	203.2000    	130.0000    	0.0000      	Open  	;
 149             	143             	141             	426.7200    	203.2000    	130.0000    	0.0000      	Open  	;
 151             	15              	143             	502.9200    	203.2000    	130.0000    	0.0000      	Open  	;
 153             	145             	141             	1069.8480   	304.8000    	130.0000    	0.0000      	Open  	;
 155             	147             	145             	670.5600    	304.8000    	130.0000    	0.0000      	Open  	;
 159             	147             	149             	268.2240    	304.8000    	130.0000    	0.0000      	Open  	;
 161             	149             	151             	310.8960    	203.2000    	130.0000    	0.0000      	Open  	;
 163             	151             	153             	356.6160    	304.8000    	130.0000    	0.0000      	Open  	;
 169             	125             	153             	1389.8880   	203.2000    	130.0000    	0.0000      	Open  	;
 171             	119             	151             	1054.6080   	304.8000    	130.0000    	0.0000      	Open  	;
 173             	119             	157             	633.9840    	762.0000    	141.0000    	0.0000      	Open  	;
 175             	157             	159             	886.9680    	762.0000    	141.0000    	0.0000      	Open  	;
 177             	159             	161             	609.6000    	762.0000    	141.0000    	0.0000      	Open  	;
 179             	161             	163             	131.0640    	762.0000    	141.0000    	0.0000      	Open  	;
 180             	163             	164             	45.7200     	355.6000    	130.0000    	0.0000      	Open  	;
 181             	164             	166             	149.3520    	355.6000    	130.0000    	0.0000      	Open  	;
 183             	265             	169             	179.8320    	762.0000    	141.0000    	0.0000      	Open  	;
 185             	167             	169             	18.2880     	203.2000    	130.0000    	0.0000      	Open  	;
 186             	187             	204             	30.4495     	203.2000    	130.0000    	0.0000      	Open  	;
 187             	169             	171             	387.0960    	762.0000    	141.0000    	0.0000      	Open  	;
 189             	171             	173             	15.2400     	762.0000    	141.0000    	0.0000      	Open  	;
 191             	271             	171             	231.6480    	609.6000    	130.0000    	0.0000      	Open  	;
 193             	35              	181             	9.1440      	609.6000    	130.0000    	0.0000      	Open  	;
 195             	181             	177             	9.1440      	304.8000    	130.0000    	0.0000      	Open  	;
 197             	177             	179             	9.1440      	304.8000    	130.0000    	0.0000      	Open  	;
 199             	179             	183             	64.0080     	304.8000    	130.0000    	0.0000      	Open  	;
 201             	40              	179             	362.7120    	304.8000    	130.0000    	0.0000      	Open  	;
 202             	185             	184             	30.4495     	203.2000    	130.0000    	0.0000      	Open  	;
 203             	183             	185             	155.4480    	203.2000    	130.0000    	0.0000      	Open  	;
 204             	184             	205             	1380.7440   	304.8000    	130.0000    	0.0000      	Open  	;
 205             	204             	185             	403.8600    	304.8000    	130.0000    	0.0000      	Open  	;
 207             	189             	183             	411.4800    	304.8000    	130.0000    	0.0000      	Open  	;
 209             	189             	187             	152.4000    	203.2000    	130.0000    	0.0000      	Open  	;
 211             	169             	269             	196.9008    	304.8000    	130.0000    	0.0000      	Open  	;
 213             	191             	187             	780.2880    	304.8000    	130.0000    	0.0000      	Open  	;
 215             	267             	189             	374.9040    	304.8000    	130.0000    	0.0000      	Open  	;
 217             	191             	193             	158.4960    	304.8000    	130.0000    	0.0000      	Open  	;
 219             	193             	195             	109.7280    	304.8000    	130.0000    	0.0000      	Open  	;
 221             	161             	195             	701.0400    	203.2000    	130.0000    	0.0000      	Open  	;
 223             	197             	191             	350.5200    	304.8000    	130.0000    	0.0000      	Open  	;
 225             	111             	197             	850.3920    	304.8000    	130.0000    	0.0000      	Open  	;
 229             	173             	199             	1219.2000   	609.6000    	141.0000    	0.0000      	Open  	;
 231             	199             	201             	192.0240    	609.6000    	141.0000    	0.0000      	Open  	;
 233             	201             	203             	36.5760     	609.6000    	130.0000    	0.0000      	Open  	;
 235             	199             	273             	220.9800    	304.8000    	130.0000    	0.0000      	Open  	;
 237             	205             	207             	365.7600    	304.8000    	130.0000    	0.0000      	Open  	;
 238             	207             	206             	137.1600    	304.8000    	130.0000    	0.0000      	Open  	;
 239             	275             	207             	435.8640    	304.8000    	130.0000    	0.0000      	Open  	;
 240             	206             	208             	155.4480    	304.8000    	130.0000    	0.0000      	Open  	;
 241             	208             	209             	269.7480    	304.8000    	130.0000    	0.0000      	Open  	;
 243             	209             	211             	368.8080    	406.4000    	130.0000    	0.0000      	Open  	;
 245             	211             	213             	301.7520    	406.4000    	130.0000    	0.0000      	Open  	;
 247             	213             	215             	1306.0680   	406.4000    	130.0000    	0.0000      	Open  	;
 249             	215             	217             	505.9680    	406.4000    	130.0000    	0.0000      	Open  	;
 251             	217             	219             	624.8400    	355.6000    	130.0000    	0.0000      	Open  	;
 257             	217             	225             	475.4880    	304.8000    	130.0000    	0.0000      	Open  	;
 261             	213             	229             	670.5600    	203.2000    	130.0000    	0.0000      	Open  	;
 263             	229             	231             	597.4080    	304.8000    	130.0000    	0.0000      	Open  	;
 269             	211             	237             	633.9840    	304.8000    	130.0000    	0.0000      	Open  	;
 271             	237             	229             	240.7920    	203.2000    	130.0000    	0.0000      	Open  	;
 273             	237             	239             	155.4480    	304.8000    	130.0000    	0.0000      	Open  	;
 275             	239             	241             	10.6680     	304.8000    	130.0000    	0.0000      	Open  	;
 277             	241             	243             	670.5600    	304.8000    	130.0000    	0.0000      	Open  	;
 281             	241             	247             	135.6360    	254.0000    	130.0000    	0.0000      	Open  	;
 283             	239             	249             	131.0640    	304.8000    	130.0000    	0.0000      	Open  	;
 285             	247             	249             	3.0480      	304.8000    	130.0000    	0.0000      	Open  	;
 287             	247             	255             	423.6720    	254.0000    	130.0000    	0.0000      	Open  	;
 289             	50              	255             	281.9400    	254.0000    	130.0000    	0.0000      	Open  	;
 291             	255             	253             	335.2800    	254.0000    	130.0000    	0.0000      	Open  	;
 293             	255             	251             	335.2800    	203.2000    	130.0000    	0.0000      	Open  	;
 295             	249             	251             	441.9600    	304.8000    	130.0000    	0.0000      	Open  	;
 297             	120             	257             	196.5960    	203.2000    	130.0000    	0.0000      	Open  	;
 299             	257             	259             	106.6800    	203.2000    	130.0000    	0.0000      	Open  	;
 301             	259             	263             	426.7200    	203.2000    	130.0000    	0.0000      	Open  	;
 303             	257             	261             	426.7200    	203.2000    	130.0000    	0.0000      	Open  	;
 305             	117             	261             	196.5960    	304.8000    	130.0000    	0.0000      	Open  	;
 307             	261             	263             	106.6800    	304.8000    	130.0000    	0.0000      	Open  	;
 309             	265             	267             	481.5840    	203.2000    	130.0000    	0.0000      	Open  	;
 311             	193             	267             	356.6160    	304.8000    	130.0000    	0.0000      	Open  	;
 313             	269             	189             	196.9008    	304.8000    	130.0000    	0.0000      	Open  	;
 315             	181             	271             	79.2480     	609.6000    	130.0000    	0.0000      	Open  	;
 317             	273             	275             	679.7040    	203.2000    	130.0000    	0.0000      	Open  	;
 319             	273             	205             	196.5960    	304.8000    	130.0000    	0.0000      	Open  	;
 321             	163             	265             	365.7600    	762.0000    	141.0000    	0.0000      	Open  	;
 323             	201             	275             	91.4400     	304.8000    	130.0000    	0.0000      	Open  	;
 325             	269             	271             	393.1920    	203.2000    	130.0000    	0.0000      	Open  	;
 329             	61              	123             	13868.4000  	762.0000    	140.0000    	0.0000      	Open  	;
 330             	60              	601             	0.3048      	762.0000    	140.0000    	0.0000      	Open  	;
 333             	601             	61              	0.3048      	762.0000    	140.0000    	0.0000      	Open  	;
 1               	Lake            	10              	10          	450         	100         	0           	Open  	;
 2               	60              	61              	100         	600         	100         	0           	Open  	;
 3               	3               	20              	100         	500         	130         	0           	Open  	;
 4               	4               	40              	300         	300         	130         	0           	Open  	;
 5               	5               	50              	100         	250         	130         	0           	Open  	;

[PUMPS]
;ID              	Node1           	Node2           	Parameters

[VALVES]
;ID              	Node1           	Node2           	Diameter    	Type	Setting     	MinorLoss   

[TAGS]

[DEMANDS]
;Junction        	Demand      	Pattern         	Category

[STATUS]
;ID              	Status/Setting

[PATTERNS]
;ID              	Multipliers
;
 1               	1.3400      	1.9400      	1.4600      	1.4400      	0.7600      	0.9200      
 1               	0.8500      	1.0700      	0.9600      	1.1000      	1.0800      	1.1900      
 1               	1.1600      	1.0800      	0.9600      	0.8300      	0.7900      	0.7400      
 1               	0.6400      	0.6400      	0.8500      	0.9600      	1.2400      	1.6700      
;
 2               	0.0000      	0.0000      	0.0000      	0.0000      	0.0000      	1219.0000   
 2               	0.0000      	0.0000      	0.0000      	1866.0000   	1836.0000   	1818.0000   
 2               	1818.0000   	1822.0000   	1822.0000   	1817.0000   	1824.0000   	1816.0000   
 2               	1833.0000   	1817.0000   	1830.0000   	1814.0000   	1840.0000   	1859.0000   
;
 3               	620.0000    	620.0000    	620.0000    	620.0000    	620.0000    	360.0000    
 3               	360.0000    	0.0000      	0.0000      	0.0000      	0.0000      	360.0000    
 3               	360.0000    	360.0000    	360.0000    	360.0000    	0.0000      	0.0000      
 3               	0.0000      	0.0000      	0.0000      	0.0000      	360.0000    	360.0000    
;
 4               	1637.0000   	1706.0000   	1719.0000   	1719.0000   	1791.0000   	1819.0000   
 4               	1777.0000   	1842.0000   	1815.0000   	1825.0000   	1856.0000   	1801.0000   
 4               	1819.0000   	1733.0000   	1664.0000   	1620.0000   	1613.0000   	1620.0000   
 4               	1616.0000   	1647.0000   	1627.0000   	1627.0000   	1671.0000   	1668.0000   
;
 5               	4439.0000   	4531.0000   	4511.0000   	4582.0000   	4531.0000   	4582.0000   
 5               	4572.0000   	4613.0000   	4643.0000   	4643.0000   	4592.0000   	4613.0000   
 5               	4531.0000   	4521.0000   	4449.0000   	4439.0000   	4449.0000   	4460.0000   
 5               	4439.0000   	4419.0000   	4368.0000   	4399.0000   	4470.0000   	4480.0000   

[CURVES]
;ID              	X-Value     	Y-Value
;PUMP: PUMP: PUMP: 
 1               	0.0000      	31.6992     
 1               	454.2494    	28.0416     
 1               	908.4988    	19.2024     
;PUMP: PUMP: PUMP: 
 2               	0.0000      	60.9600     
 2               	1816.9976   	42.0624     
 2               	3179.7458   	26.2128     

[CONTROLS]



[RULES]



[ENERGY]
 Global Efficiency  	75.0000
 Global Price       	0
 Demand Charge      	0.0000

[EMITTERS]
;Junction        	Coefficient

[QUALITY]
;Node            	InitQual

[SOURCES]
;Node            	Type        	Quality     	Pattern

[REACTIONS]
;Type     	Pipe/Tank       	Coefficient


[REACTIONS]
 Order Bulk            	1.00
 Order Tank            	1.00
 Order Wall            	1
 Global Bulk           	0.000000
 Global Wall           	0.000000
 Limiting Potential    	0
 Roughness Correlation 	0

[MIXING]
;Tank            	Model

[TIMES]
 Duration           	5:00 
 Hydraulic Timestep 	1:00 
 Quality Timestep   	0:05 
 Pattern Timestep   	1:00 
 Pattern Start      	0:00 
 Report Timestep    	1:00 
 Report Start       	0:00 
 Start ClockTime    	0:00:00
 Statistic          	NONE

[REPORT]
 Status             	Yes
 Summary            	No
 Page               	0

[OPTIONS]
 Units              	CMH
 Headloss           	H-W
 Specific Gravity   	1.000000
 Viscosity          	1.000000
 Trials             	40
 Accuracy           	0.00100000
 CHECKFREQ          	2
 MAXCHECK           	10
 DAMPLIMIT          	0.00000000
 Unbalanced         	Continue 10
 Pattern            	1
 Demand Multiplier  	1.0000
 Emitter Exponent   	0.5000
 Quality            	Trace Lake
 Diffusivity        	1.000000
 Tolerance          	0.01000000

[COORDINATES]
;Node            	X-Coord         	Y-Coord
 10              	9.00            	27.85           
 15              	38.68           	23.76           
 20              	29.44           	26.91           
 35              	25.46           	10.52           
 40              	27.02           	9.81            
 50              	33.01           	3.01            
 60              	23.90           	29.94           
 601             	23.00           	29.49           
 61              	23.71           	29.03           
 101             	13.81           	22.94           
 103             	12.96           	21.31           
 105             	16.97           	21.28           
 107             	18.45           	20.46           
 109             	17.64           	18.92           
 111             	20.21           	17.53           
 113             	22.04           	16.61           
 115             	20.98           	19.18           
 117             	21.69           	21.28           
 119             	23.70           	22.76           
 120             	22.08           	23.10           
 121             	23.54           	25.50           
 123             	23.37           	27.31           
 125             	24.59           	25.64           
 127             	29.29           	26.40           
 129             	30.32           	26.39           
 131             	37.89           	29.55           
 139             	33.28           	24.54           
 141             	35.68           	23.08           
 143             	37.47           	21.97           
 145             	33.02           	19.29           
 147             	30.24           	20.38           
 149             	29.62           	20.74           
 151             	28.29           	21.39           
 153             	28.13           	22.63           
 157             	24.85           	20.16           
 159             	23.12           	17.50           
 161             	25.10           	15.28           
 163             	25.39           	14.98           
 164             	25.98           	15.14           
 166             	26.48           	15.13           
 167             	25.88           	12.98           
 169             	25.68           	12.74           
 171             	26.65           	11.80           
 173             	26.87           	11.59           
 177             	26.90           	11.65           
 179             	25.71           	10.40           
 181             	25.72           	10.74           
 183             	25.45           	10.18           
 184             	25.15           	9.52            
 185             	25.01           	9.67            
 187             	23.64           	11.04           
 189             	24.15           	11.37           
 191             	22.10           	14.07           
 193             	22.88           	14.35           
 195             	23.18           	14.72           
 197             	20.97           	15.18           
 199             	29.42           	8.44            
 201             	30.89           	8.57            
 203             	31.14           	8.89            
 204             	23.80           	10.90           
 205             	29.20           	6.46            
 206             	31.66           	6.64            
 207             	31.00           	6.61            
 208             	32.54           	6.81            
 209             	33.76           	6.59            
 211             	34.20           	5.54            
 213             	35.26           	6.16            
 215             	39.95           	8.73            
 217             	42.11           	8.67            
 219             	44.86           	9.32            
 225             	43.53           	7.38            
 229             	36.16           	3.49            
 231             	38.38           	2.54            
 237             	35.37           	3.08            
 239             	35.76           	2.31            
 241             	35.87           	2.11            
 243             	37.04           	0.00            
 247             	35.02           	2.05            
 249             	35.02           	1.81            
 251             	34.15           	1.10            
 253             	32.17           	1.88            
 255             	33.51           	2.45            
 257             	21.17           	23.32           
 259             	20.80           	23.40           
 261             	20.79           	21.45           
 263             	20.32           	21.57           
 265             	25.39           	13.60           
 267             	23.38           	12.95           
 269             	25.03           	12.14           
 271             	25.97           	11.00           
 273             	29.16           	7.38            
 275             	31.07           	8.29            
 River           	24.15           	31.06           
 Lake            	8.00            	27.53           
 3               	29.44           	27.28           
 4               	27.45           	9.89            
 5               	32.98           	3.42            

[VERTICES]
;Link            	X-Coord         	Y-Coord

[LABELS]
;X-Coord           Y-Coord          Label & Anchor Node
 8.00             29.42            "LAKE"                 
 25.00            31.10            "RIVER"                 

[BACKDROP]
 DIMENSIONS     	6.16            	-1.55           	46.70           	32.61           
 UNITS          	None
 FILE           	
 OFFSET         	0.00            	0.00            

[END]
