[TITLE]
EPANET     Example     Network     1     
A     simple     example     of     
wall     reactions     are     included.     

[JUNCTIONS]
;ID              	Elev        	Demand      	Pattern         
 1               	220.0000    	1.000000    	P1              	;
 2               	220.0000    	1.000000    	P2              	;
 3               	220.0000    	1.000000    	P3              	;
 4               	220.0000    	1.000000    	P4              	;
 5               	210.0000    	1.000000    	P5              	;
 6               	210.0000    	1.000000    	P6              	;
 7               	210.0000    	1.000000    	P7              	;
 8               	200.0000    	1.000000    	P8              	;
 9               	200.0000    	1.000000    	P9              	;
 12              	100.0000    	1.000000    	P12             	;
 13              	150.0000    	1.000000    	P13             	;
 14              	200.0000    	1.000000    	P14             	;
 15              	170.0000    	1.000000    	P15             	;

[RESERVOIRS]
;ID              	Head        	Pattern         
 10              	1000.0000   	                	;
 16              	340.0000    	                	;
 11              	1000.0000   	                	;

[TANKS]
;ID              	Elevation   	InitLevel   	MinLevel    	MaxLevel    	Diameter    	MinVol      	VolCurve

[PIPES]
;ID              	Node1           	Node2           	Length      	Diameter    	Roughness   	MinorLoss   	Status
 1               	1               	2               	3200.0000   	450.0000    	100.0000    	0.0000      	Open  	;
 2               	2               	3               	1600.0000   	350.0000    	100.0000    	0.0000      	Open  	;
 3               	3               	4               	1600.0000   	250.0000    	100.0000    	0.0000      	Open  	;
 4               	5               	6               	1600.0000   	250.0000    	100.0000    	0.0000      	Open  	;
 5               	6               	7               	1600.0000   	300.0000    	100.0000    	0.0000      	Open  	;
 6               	8               	9               	1600.0000   	150.0000    	100.0000    	0.0000      	Open  	;
 7               	2               	5               	1600.0000   	250.0000    	100.0000    	0.0000      	Open  	;
 8               	3               	6               	1600.0000   	300.0000    	100.0000    	0.0000      	Open  	;
 9               	4               	7               	1600.0000   	200.0000    	100.0000    	0.0000      	Open  	;
 10              	5               	8               	1600.0000   	200.0000    	100.0000    	0.0000      	Open  	;
 11              	6               	9               	1600.0000   	150.0000    	100.0000    	0.0000      	Open  	;
 14              	12              	9               	1200.0000   	300.0000    	100.0000    	0.0000      	Open  	;
 15              	5               	13              	1500.0000   	200.0000    	100.0000    	0.0000      	Open  	;
 16              	13              	14              	1000.0000   	400.0000    	100.0000    	0.0000      	Open  	;
 17              	14              	8               	1200.0000   	200.0000    	100.0000    	0.0000      	Open  	;
 18              	13              	15              	1000.0000   	200.0000    	100.0000    	0.0000      	Open  	;
 20              	15              	5               	1100.0000   	200.0000    	100.0000    	0.0000      	Open  	;
 21              	2               	6               	1300.0000   	300.0000    	100.0000    	0.0000      	Open  	;
 22              	3               	7               	1200.0000   	250.0000    	100.0000    	0.0000      	Open  	;
 23              	12              	6               	1000.0000   	250.0000    	100.0000    	0.0000      	Open  	;
 24              	9               	5               	1500.0000   	150.0000    	100.0000    	0.0000      	Open  	;
 25              	8               	13              	1000.0000   	200.0000    	100.0000    	0.0000      	Open  	;
 26              	1               	5               	1100.0000   	300.0000    	100.0000    	0.0000      	Open  	;
 13              	16              	7               	1000.0000   	100.0000    	100.0000    	0.0000      	Open  	;
 19              	10              	1               	1000.0000   	100.0000    	100.0000    	0.0000      	Open  	;
 12              	3               	11              	1000.0000   	100.0000    	100.0000    	0.0000      	Open  	;

[PUMPS]
;ID              	Node1           	Node2           	Parameters

[VALVES]
;ID              	Node1           	Node2           	Diameter    	Type	Setting     	MinorLoss   

[TAGS]

[DEMANDS]
;Junction        	Demand      	Pattern         	Category

[STATUS]
;ID              	Status/Setting

[PATTERNS]
;ID              	Multipliers
;
 1               	1.0000      	1.0000      	1.0000      	1.0000      	1.0000      	1.0000      
 1               	1.0000      	1.0000      	1.0000      	1.0000      	1.0000      	1.0000      
;
 P1              	0.0000      	0.0000      	0.0000      	0.0000      	0.0000      	0.0000      
 P1              	0.0000      	0.0000      	0.0000      	0.0000      	0.0000      	0.0000      
;
 P2              	35.4331     	36.2021     	36.0309     	37.6981     	39.4952     	36.4864     
 P2              	38.5884     	40.1022     	39.7354     	42.5257     	41.7972     	43.6960     
;
 P3              	35.3720     	35.9140     	36.2472     	38.3557     	39.0284     	38.4549     
 P3              	41.3036     	41.9467     	40.3928     	43.6558     	42.0565     	44.1315     
;
 P4              	20.4096     	20.2459     	21.1452     	22.1901     	20.7505     	21.6703     
 P4              	21.8538     	20.9646     	24.1831     	21.1509     	23.4311     	22.8148     
;
 P5              	35.7415     	35.3627     	37.5859     	38.2746     	36.6598     	35.9109     
 P5              	40.8654     	39.5585     	41.4746     	39.3219     	43.0319     	37.7579     
;
 P6              	46.0108     	45.8389     	46.8723     	47.7441     	50.8435     	50.2029     
 P6              	49.8461     	53.1918     	51.6943     	50.9807     	52.5410     	57.4782     
;
 P7              	35.8049     	36.5588     	36.9509     	38.8016     	37.3200     	38.4394     
 P7              	35.9266     	39.0070     	39.8958     	43.1684     	36.8918     	43.8206     
;
 P8              	20.2514     	21.0311     	21.4118     	21.8643     	21.7984     	21.7733     
 P8              	23.0793     	22.0703     	23.9576     	21.5450     	22.9978     	24.3759     
;
 P9              	20.4414     	20.5774     	21.3752     	20.7652     	23.0229     	22.1992     
 P9              	22.8503     	22.5874     	22.5259     	24.5747     	23.4235     	22.7232     
;
 P12             	30.7330     	31.4266     	32.4171     	32.8977     	33.5968     	34.2497     
 P12             	32.9799     	32.4519     	33.5068     	36.8072     	32.1568     	34.9427     
;
 P13             	40.8250     	41.2338     	41.4928     	40.7684     	44.7640     	41.7434     
 P13             	42.9988     	42.8987     	46.6214     	43.3045     	45.1641     	42.0703     
;
 P14             	20.1620     	20.8192     	20.2782     	21.5303     	21.3558     	23.5481     
 P14             	20.4845     	24.5096     	22.3704     	24.4931     	24.7129     	24.4754     
;
 P15             	35.6414     	37.0750     	37.2355     	35.9894     	35.6262     	40.0877     
 P15             	36.9541     	36.3762     	37.9895     	43.6669     	43.2122     	39.9655     

[CURVES]
;ID              	X-Value     	Y-Value
;PUMP: 
 1               	0.0000      	91.4400     
 1               	454.2494    	89.0016     
 1               	908.4988    	82.2960     
 1               	1362.7482   	70.1040     
 1               	1816.9976   	55.1688     

[CONTROLS]

[RULES]

[ENERGY]
 Global Efficiency  	75.0000
 Global Price       	0
 Demand Charge      	0.0000

[EMITTERS]
;Junction        	Coefficient

[QUALITY]
;Node            	InitQual
 1               	0.500000
 2               	0.500000
 3               	0.500000
 4               	0.500000
 5               	0.500000
 6               	0.500000
 7               	0.500000
 8               	0.500000
 9               	0.500000
 10              	1.000000

[SOURCES]
;Node            	Type        	Quality     	Pattern

[REACTIONS]
;Type     	Pipe/Tank       	Coefficient


[REACTIONS]
 Order Bulk            	1.00
 Order Tank            	1.00
 Order Wall            	1
 Global Bulk           	-0.500000
 Global Wall           	-1.000000
 Limiting Potential    	0
 Roughness Correlation 	0

[MIXING]
;Tank            	Model

[TIMES]
 Duration           	1:00 
 Hydraulic Timestep 	0:05 
 Quality Timestep   	0:05 
 Pattern Timestep   	0:05 
 Pattern Start      	0:00 
 Report Timestep    	0:05 
 Report Start       	0:00 
 Start ClockTime    	0:00:00
 Statistic          	NONE

[REPORT]
 Status             	Yes
 Summary            	No
 Page               	0

[OPTIONS]
 Units              	CMH
 Headloss           	H-W
 Specific Gravity   	1.000000
 Viscosity          	1.000000
 Trials             	40
 Accuracy           	0.00100000
 CHECKFREQ          	2
 MAXCHECK           	10
 DAMPLIMIT          	0.00000000
 Unbalanced         	Continue 10
 Pattern            	1
 Demand Multiplier  	1.0000
 Emitter Exponent   	0.5000
 Quality            	Chlorine mg/L
 Diffusivity        	1.000000
 Tolerance          	0.01000000

[COORDINATES]
;Node            	X-Coord         	Y-Coord
 1               	20.00           	70.00           
 2               	30.00           	70.00           
 3               	50.00           	70.00           
 4               	70.00           	70.00           
 5               	30.00           	40.00           
 6               	50.00           	40.00           
 7               	70.00           	40.00           
 8               	30.00           	10.00           
 9               	50.00           	10.00           
 12              	70.00           	10.00           
 13              	10.00           	40.00           
 14              	10.00           	10.00           
 15              	10.00           	60.00           
 10              	10.00           	70.00           
 16              	70.00           	23.00           
 11              	50.17           	76.98           

[VERTICES]
;Link            	X-Coord         	Y-Coord

[LABELS]
;X-Coord           Y-Coord          Label & Anchor Node
 6.99             73.63            "Source"                 

[BACKDROP]
 DIMENSIONS     	7.00            	6.00            	73.00           	94.00           
 UNITS          	None
 FILE           	
 OFFSET         	0.00            	0.00            

[END]
