[TITLE]
Anytown     network     model     

[JUNCTIONS]
;ID              	Elev        	Demand      	Pattern         
 20              	6.0960      	113.562400  	1               	;
 30              	15.2400     	45.424900   	1               	;
 40              	15.2400     	45.424900   	1               	;
 50              	15.2400     	45.424900   	1               	;
 55              	24.3840     	0.000000    	1               	;
 60              	15.2400     	113.562400  	1               	;
 70              	15.2400     	113.562400  	1               	;
 75              	24.3840     	0.000000    	1               	;
 80              	15.2400     	113.562400  	1               	;
 90              	15.2400     	227.124700  	1               	;
 100             	15.2400     	113.562400  	1               	;
 110             	15.2400     	113.562400  	1               	;
 115             	24.3840     	0.000000    	1               	;
 120             	36.5760     	45.424900   	1               	;
 130             	36.5760     	45.424900   	1               	;
 140             	24.3840     	45.424900   	1               	;
 150             	36.5760     	45.424900   	1               	;
 160             	36.5760     	181.699800  	1               	;
 170             	36.5760     	45.424900   	1               	;

[RESERVOIRS]
;ID              	Head        	Pattern         
 10              	70          	                	;
 65              	65.5320     	                	;
 165             	65.5320     	                	;

[TANKS]
;ID              	Elevation   	InitLevel   	MinLevel    	MaxLevel    	Diameter    	MinVol      	VolCurve

[PIPES]
;ID              	Node1           	Node2           	Length      	Diameter    	Roughness   	MinorLoss   	Status
 2               	20              	70              	3657.6000   	406.4000    	70.0000     	0.0000      	Open  	;
 4               	20              	30              	3657.6000   	304.8000    	120.0000    	0.0000      	Open  	;
 6               	20              	110             	3657.6000   	304.8000    	70.0000     	0.0000      	Open  	;
 8               	70              	30              	2743.2000   	304.8000    	70.0000     	0.0000      	Open  	;
 10              	70              	100             	182.8800    	304.8000    	70.0000     	0.0000      	Open  	;
 12              	70              	90              	182.8800    	254.0000    	70.0000     	0.0000      	Open  	;
 14              	70              	60              	182.8800    	304.8000    	70.0000     	0.0000      	Open  	;
 16              	90              	60              	182.8800    	254.0000    	70.0000     	0.0000      	Open  	;
 18              	60              	80              	182.8800    	304.8000    	70.0000     	0.0000      	Open  	;
 20              	90              	80              	182.8800    	254.0000    	70.0000     	0.0000      	Open  	;
 22              	90              	150             	182.8800    	254.0000    	70.0000     	0.0000      	Open  	;
 24              	90              	100             	182.8800    	254.0000    	70.0000     	0.0000      	Open  	;
 26              	100             	150             	182.8800    	304.8000    	70.0000     	0.0000      	Open  	;
 28              	150             	80              	182.8800    	254.0000    	70.0000     	0.0000      	Open  	;
 30              	60              	30              	182.8800    	254.0000    	120.0000    	0.0000      	Open  	;
 32              	30              	40              	182.8800    	254.0000    	120.0000    	0.0000      	Open  	;
 34              	30              	50              	182.8800    	254.0000    	120.0000    	0.0000      	Open  	;
 36              	40              	50              	182.8800    	254.0000    	120.0000    	0.0000      	Open  	;
 38              	50              	80              	182.8800    	254.0000    	120.0000    	0.0000      	Open  	;
 40              	80              	140             	182.8800    	254.0000    	120.0000    	0.0000      	Open  	;
 42              	150             	140             	182.8800    	203.2000    	120.0000    	0.0000      	Open  	;
 44              	150             	160             	182.8800    	203.2000    	120.0000    	0.0000      	Open  	;
 46              	100             	160             	182.8800    	203.2000    	120.0000    	0.0000      	Open  	;
 48              	100             	110             	182.8800    	203.2000    	70.0000     	0.0000      	Open  	;
 50              	110             	160             	182.8800    	254.0000    	120.0000    	0.0000      	Open  	;
 52              	110             	120             	182.8800    	203.2000    	120.0000    	0.0000      	Open  	;
 54              	120             	160             	182.8800    	304.8000    	130.0000    	0.0000      	Open  	;
 56              	120             	130             	182.8800    	203.2000    	120.0000    	0.0000      	Open  	;
 58              	130             	160             	182.8800    	254.0000    	120.0000    	0.0000      	Open  	;
 60              	130             	170             	182.8800    	203.2000    	120.0000    	0.0000      	Open  	;
 62              	160             	140             	182.8800    	203.2000    	120.0000    	0.0000      	Open  	;
 64              	170             	140             	3657.6000   	203.2000    	120.0000    	0.0000      	Open  	;
 66              	50              	140             	3657.6000   	203.2000    	120.0000    	0.0000      	Open  	;
 68              	140             	115             	1828.8000   	304.8000    	130.0000    	0.0000      	Open  	;
 70              	140             	75              	1828.8000   	304.8000    	130.0000    	0.0000      	Open  	;
 72              	115             	75              	1828.8000   	304.8000    	130.0000    	0.0000      	Open  	;
 74              	50              	55              	1828.8000   	304.8000    	130.0000    	0.0000      	Open  	;
 76              	55              	75              	1828.8000   	304.8000    	130.0000    	0.0000      	Open  	;
 78              	60              	65              	30.4800     	304.8000    	120.0000    	0.0000      	Open  	;
 80              	165             	160             	30.4800     	304.8000    	120.0000    	0.0000      	Open  	;
 1               	10              	20              	10          	400         	70          	0           	Open  	;

[PUMPS]
;ID              	Node1           	Node2           	Parameters

[VALVES]
;ID              	Node1           	Node2           	Diameter    	Type	Setting     	MinorLoss   

[TAGS]

[DEMANDS]
;Junction        	Demand      	Pattern         	Category

[STATUS]
;ID              	Status/Setting

[PATTERNS]
;ID              	Multipliers
;
 1               	0.7000      	0.6000      	1.2000      	1.3000      	1.2000      	1.1000      
 1               	1.0000      	0.9000      

[CURVES]
;ID              	X-Value     	Y-Value
;PUMP: PUMP: PUMP: PUMP: PUMP: PUMP: 
 1               	0.0000      	91.4400     
 1               	454.2494    	89.0016     
 1               	908.4988    	82.2960     
 1               	1362.7482   	70.1040     
 1               	1816.9976   	55.1688     
;PUMP: PUMP: PUMP: PUMP: PUMP: PUMP: 
 E1              	0.0000      	0.0000      
 E1              	454.2494    	15.2400     
 E1              	908.4988    	19.8120     
 E1              	1362.7482   	16.7640     
 E1              	1816.9976   	12.1920     

[CONTROLS]






[RULES]






[ENERGY]
 Global Efficiency  	65.0000
 Global Price       	0
 Demand Charge      	0.0000

[EMITTERS]
;Junction        	Coefficient

[QUALITY]
;Node            	InitQual

[SOURCES]
;Node            	Type        	Quality     	Pattern

[REACTIONS]
;Type     	Pipe/Tank       	Coefficient


[REACTIONS]
 Order Bulk            	1.00
 Order Tank            	1.00
 Order Wall            	1
 Global Bulk           	0.000000
 Global Wall           	0.000000
 Limiting Potential    	0
 Roughness Correlation 	0

[MIXING]
;Tank            	Model

[TIMES]
 Duration           	5:00 
 Hydraulic Timestep 	1:00 
 Quality Timestep   	0:05 
 Pattern Timestep   	1:00 
 Pattern Start      	0:00 
 Report Timestep    	1:00 
 Report Start       	0:00 
 Start ClockTime    	0:00:00
 Statistic          	NONE

[REPORT]
 Status             	Yes
 Summary            	No
 Page               	0

[OPTIONS]
 Units              	CMH
 Headloss           	H-W
 Specific Gravity   	1.000000
 Viscosity          	1.000000
 Trials             	40
 Accuracy           	0.00100000
 CHECKFREQ          	2
 MAXCHECK           	10
 DAMPLIMIT          	0.00000000
 Unbalanced         	Continue 10
 Pattern            	1
 Demand Multiplier  	1.0000
 Emitter Exponent   	0.5000
 Quality            	Chlorine mg/L
 Diffusivity        	1.000000
 Tolerance          	0.01000000

[COORDINATES]
;Node            	X-Coord         	Y-Coord
 20              	6391.60         	4257.81         
 30              	6723.63         	6181.64         
 40              	5327.15         	7500.00         
 50              	3959.96         	7050.78         
 55              	3081.05         	7431.64         
 60              	5366.21         	6044.92         
 70              	5473.63         	4931.64         
 75              	2270.51         	7089.84         
 80              	4340.82         	6230.47         
 90              	4838.87         	5410.16         
 100             	4428.71         	4765.63         
 110             	4125.98         	3945.31         
 115             	1655.27         	6787.11         
 120             	3413.09         	3281.25         
 130             	2055.66         	3896.48         
 140             	2124.02         	6015.63         
 150             	3891.60         	5566.41         
 160             	2895.51         	4765.63         
 170             	825.20          	5126.95         
 10              	7241.21         	3750.00         
 65              	5297.85         	6367.19         
 165             	2377.93         	4892.58         

[VERTICES]
;Link            	X-Coord         	Y-Coord
 62              	2133.79         	6064.45         
 80              	2807.62         	4755.86         

[LABELS]
;X-Coord           Y-Coord          Label & Anchor Node

[BACKDROP]
 DIMENSIONS     	0.00            	0.00            	10000.00        	10000.00        
 UNITS          	None
 FILE           	
 OFFSET         	0.00            	0.00            

[END]
