[TITLE]     
EPANET     Example     Network     1     
A     simple     example     of     
wall     reactions     are     included.     
[JUNCTIONS]     
1     120.0000     
2     120.0000     
3     120.0000     
4     120.0000     
5     110.0000     
6     110.0000     
7     110.0000     
8     100.0000     
9     100.0000     
[RESERVOIRS]     
10     240.0000     
11     200.0000     
[TANKS]     
[PIPES]     
1     1     2     3200.0000     450.0000     100.0000     0.0000     
2     2     3     1600.0000     350.0000     100.0000     0.0000     
3     3     4     1600.0000     250.0000     100.0000     0.0000     
4     5     6     1600.0000     250.0000     100.0000     0.0000     
5     6     7     1600.0000     300.0000     100.0000     0.0000     
6     8     9     1600.0000     150.0000     100.0000     0.0000     
7     2     5     1600.0000     250.0000     100.0000     0.0000     
8     3     6     1600.0000     300.0000     100.0000     0.0000     
9     4     7     1600.0000     200.0000     100.0000     0.0000     
10     5     8     1600.0000     200.0000     100.0000     0.0000     
11     6     9     1600.0000     150.0000     100.0000     0.0000     
12     3     11     1000.0000     400.0000     100.0000     0.0000     
13     10     1     1000.0000     450.0000     100.0000     0.0000     
[PUMPS]     
[VALVES]     
[DEMANDS]     
1     1.000000     P1     
2     1.000000     P2     
3     1.000000     P3     
4     1.000000     P4     
5     1.000000     P5     
6     1.000000     P6     
7     1.000000     P7     
8     1.000000     P8     
9     1.000000     P9     
[EMITTERS]     
[STATUS]     
[PATTERNS]     
1     1.0000     1.0000     1.0000     1.0000     1.0000     1.0000     
1     1.0000     1.0000     1.0000     1.0000     1.0000     1.0000     
P1     0.0000     0.0000     0.0000     0.0000     0.0000     0.0000     
P2     35.2708     36.0615     35.4558     36.6731     36.3791     38.7508     
P3     35.5918     36.4670     37.2501     35.5042     35.5141     35.7829     
P4     20.1033     20.4766     20.9283     20.8609     21.9897     20.8614     
P5     35.6450     35.9718     35.4016     36.6323     37.4407     39.4152     
P6     45.8016     46.1206     47.5261     45.7797     48.2273     49.7359     
P7     35.6461     36.4154     37.0817     36.9009     37.5732     36.0150     
P8     20.1615     20.7535     21.2579     20.0459     21.6212     22.6099     
P9     20.1672     20.1482     20.7464     20.5557     21.8337     20.1664     
[CURVES]
1     0.0000     91.4400     
1     454.2494     89.0016     
1     908.4988     82.2960     
1     1362.7482     70.1040     
1     1816.9976     55.1688     
[CONTROLS]     
[QUALITY]     
1     0.500000     
2     0.500000     
3     0.500000     
4     0.500000     
5     0.500000     
6     0.500000     
7     0.500000     
8     0.500000     
9     0.500000     
10     1.000000     
[SOURCES]     
[MIXING]     
[REACTIONS]     
ORDER     BULK     1.00     
ORDER     WALL     1     
ORDER     TANK     1.00     
GLOBAL     BULK     -0.500000     
GLOBAL     WALL     -1.000000     
[ENERGY]     
GLOBAL     EFFIC     75.0000     
DEMAND     CHARGE     0.0000     
[TIMES]     
DURATION     0:30:00     
HYDRAULIC     TIMESTEP     0:05:00     
QUALITY     TIMESTEP     0:05:00     
REPORT     TIMESTEP     0:05:00     
REPORT     START     0:00:00     
PATTERN     TIMESTEP     0:05:00     
PATTERN     START     0:00:00     
RULE     TIMESTEP     0:00:30     
START     CLOCKTIME     0:00:00     
STATISTIC     NONE     
[OPTIONS]     
UNITS     CMH     
PRESSURE     METERS     
HEADLOSS     H-W     
PATTERN     1     
UNBALANCED     CONTINUE     10     
QUALITY     NONE     
DEMAND     MULTIPLIER     1.0000     
EMITTER     EXPONENT     0.5000     
VISCOSITY     1.000000     
DIFFUSIVITY     1.000000     
SPECIFIC     GRAVITY     1.000000     
TRIALS     40     
ACCURACY     0.00100000     
TOLERANCE     0.01000000     
CHECKFREQ     2     
MAXCHECK     10     
DAMPLIMIT     0.00000000     
[REPORT]     
PAGESIZE     0     
STATUS     YES     
SUMMARY     NO     
ENERGY     NO     
MESSAGES     YES     
NODES     NONE     
LINKS     NONE     
Elevation     NO     
Demand     PRECISION     2     
Head     PRECISION     2     
Pressure     PRECISION     2     
Quality     NO     
Length     NO     
Diameter     NO     
Flow     PRECISION     2     
Velocity     PRECISION     2     
Headloss     PRECISION     2     
Quality     NO     
State     NO     
Setting     NO     
Reaction     NO     
[COORDINATES]     
1     20.000000     70.000000     
2     30.000000     70.000000     
3     50.000000     70.000000     
4     70.000000     70.000000     
5     30.000000     40.000000     
6     50.000000     40.000000     
7     70.000000     40.000000     
8     30.000000     10.000000     
9     50.000000     10.000000     
10     10.000000     70.000000     
11     50.000000     80.000000     
[TAGS]     
[VERTICES]     
;Link     X-Coord     Y-Coord     
[LABELS]     
;X-Coord     Y-Coord     Label     &     Anchor     Node     
6.95     73.59     "Source     1"     
48.43     80.52     "Source     2"     
[BACKDROP]     
DIMENSIONS     7.00     6.00     73.00     94.00     
UNITS     None     
FILE     
OFFSET     0.00     0.00     
[END]     
