[TITLE]
EPANET     Example     Network     1     
A     simple     example     of     
wall     reactions     are     included.     

[JUNCTIONS]
;ID              	Elev        	Demand      	Pattern         
 1               	220.0000    	1.000000    	P1              	;
 2               	220.0000    	1.000000    	P2              	;
 3               	220.0000    	1.000000    	P3              	;
 4               	220.0000    	1.000000    	P4              	;
 5               	210.0000    	1.000000    	P5              	;
 6               	210.0000    	1.000000    	P6              	;
 7               	210.0000    	1.000000    	P7              	;
 8               	200.0000    	1.000000    	P8              	;
 9               	200.0000    	1.000000    	P9              	;
 12              	100.0000    	1.000000    	P12             	;
 13              	150.0000    	1.000000    	P13             	;
 14              	200.0000    	1.000000    	P14             	;
 15              	170.0000    	1.000000    	P15             	;

[RESERVOIRS]
;ID              	Head        	Pattern         
 10              	340.0000    	                	;
 16              	240.0000    	                	;
 11              	220         	                	;

[TANKS]
;ID              	Elevation   	InitLevel   	MinLevel    	MaxLevel    	Diameter    	MinVol      	VolCurve

[PIPES]
;ID              	Node1           	Node2           	Length      	Diameter    	Roughness   	MinorLoss   	Status
 1               	1               	2               	3200.0000   	450.0000    	100.0000    	0.0000      	Open  	;
 2               	2               	3               	1600.0000   	350.0000    	100.0000    	0.0000      	Open  	;
 3               	3               	4               	1600.0000   	250.0000    	100.0000    	0.0000      	Open  	;
 4               	5               	6               	1600.0000   	250.0000    	100.0000    	0.0000      	Open  	;
 5               	6               	7               	1600.0000   	300.0000    	100.0000    	0.0000      	Open  	;
 6               	8               	9               	1600.0000   	150.0000    	100.0000    	0.0000      	Open  	;
 7               	2               	5               	1600.0000   	250.0000    	100.0000    	0.0000      	Open  	;
 8               	3               	6               	1600.0000   	300.0000    	100.0000    	0.0000      	Open  	;
 9               	4               	7               	1600.0000   	200.0000    	100.0000    	0.0000      	Open  	;
 10              	5               	8               	1600.0000   	200.0000    	100.0000    	0.0000      	Open  	;
 11              	6               	9               	1600.0000   	150.0000    	100.0000    	0.0000      	Open  	;
 14              	12              	9               	1000.0000   	300.0000    	100.0000    	0.0000      	Open  	;
 15              	5               	13              	1000.0000   	200.0000    	100.0000    	0.0000      	Open  	;
 16              	13              	14              	1000.0000   	400.0000    	100.0000    	0.0000      	Open  	;
 17              	14              	8               	1000.0000   	200.0000    	100.0000    	0.0000      	Open  	;
 18              	13              	15              	1000.0000   	200.0000    	100.0000    	0.0000      	Open  	;
 12              	11              	3               	100         	350         	100         	0           	Open  	;

[PUMPS]
;ID              	Node1           	Node2           	Parameters
 13              	10              	1               	HEAD 1	;
 19              	16              	7               	HEAD 1	;

[VALVES]
;ID              	Node1           	Node2           	Diameter    	Type	Setting     	MinorLoss   

[TAGS]

[DEMANDS]
;Junction        	Demand      	Pattern         	Category

[STATUS]
;ID              	Status/Setting

[PATTERNS]
;ID              	Multipliers
;
 1               	1.0000      	1.0000      	1.0000      	1.0000      	1.0000      	1.0000      
 1               	1.0000      	1.0000      	1.0000      	1.0000      	1.0000      	1.0000      
;
 P1              	0.0000      	0.0000      	0.0000      	0.0000      	0.0000      	0.0000      
 P1              	0.0000      	0.0000      	0.0000      	0.0000      	0.0000      	0.0000      
;
 P2              	36.0441     	36.1819     	37.9772     	38.4465     	36.7961     	39.0839     
 P2              	39.0931     	39.4084     	41.1445     	37.7810     	37.9995     	43.8416     
;
 P3              	35.6526     	35.4935     	36.9504     	35.4741     	36.7042     	38.3812     
 P3              	37.2182     	40.8186     	40.6544     	41.1604     	41.8689     	42.9401     
;
 P4              	20.6173     	20.9490     	20.8019     	21.7049     	21.2461     	21.6500     
 P4              	21.3245     	20.2839     	25.0856     	23.6384     	23.2452     	23.2956     
;
 P5              	35.7414     	36.5253     	37.2476     	36.8575     	36.0245     	37.6116     
 P5              	38.7014     	40.9965     	40.6387     	43.1207     	42.0652     	37.2261     
;
 P6              	45.0829     	45.6286     	46.2104     	50.3845     	46.7832     	47.0511     
 P6              	48.2152     	51.8539     	51.4691     	46.4279     	55.5553     	49.8925     
;
 P7              	35.7539     	35.9055     	37.6750     	35.7068     	36.8186     	40.3915     
 P7              	41.3887     	39.5285     	42.3814     	41.2329     	37.5063     	43.0236     
;
 P8              	20.5263     	20.4477     	21.1413     	21.2159     	20.2522     	21.7097     
 P8              	21.7536     	22.3078     	22.2228     	22.3412     	23.9844     	20.9501     
;
 P9              	20.5046     	21.0245     	21.0238     	20.3262     	22.8483     	22.4613     
 P9              	21.6167     	21.7935     	20.2969     	25.7948     	22.6188     	22.6341     
;
 P12             	30.8110     	30.6927     	31.3406     	33.2514     	33.9357     	30.8042     
 P12             	31.5882     	34.0364     	34.6977     	35.9877     	34.7725     	33.5736     
;
 P13             	40.7164     	41.6835     	41.4093     	40.4725     	43.2646     	42.4501     
 P13             	43.7463     	46.9490     	44.8190     	48.2460     	45.8361     	47.7402     
;
 P14             	20.3826     	20.5409     	20.2982     	21.8931     	21.1907     	22.0211     
 P14             	22.0507     	21.9582     	22.9974     	22.7336     	24.8578     	24.1973     
;
 P15             	35.8652     	36.2840     	36.4266     	38.4931     	37.8644     	40.2732     
 P15             	37.4842     	38.8189     	41.0549     	38.1187     	38.0568     	37.7413     

[CURVES]
;ID              	X-Value     	Y-Value
;PUMP: 
 1               	0.0000      	91.4400     
 1               	454.2494    	89.0016     
 1               	908.4988    	82.2960     
 1               	1362.7482   	70.1040     
 1               	1816.9976   	55.1688     

[CONTROLS]

[RULES]

[ENERGY]
 Global Efficiency  	75.0000
 Global Price       	0
 Demand Charge      	0.0000

[EMITTERS]
;Junction        	Coefficient

[QUALITY]
;Node            	InitQual
 1               	0.500000
 2               	0.500000
 3               	0.500000
 4               	0.500000
 5               	0.500000
 6               	0.500000
 7               	0.500000
 8               	0.500000
 9               	0.500000
 10              	1.000000

[SOURCES]
;Node            	Type        	Quality     	Pattern

[REACTIONS]
;Type     	Pipe/Tank       	Coefficient


[REACTIONS]
 Order Bulk            	1.00
 Order Tank            	1.00
 Order Wall            	1
 Global Bulk           	-0.500000
 Global Wall           	-1.000000
 Limiting Potential    	0
 Roughness Correlation 	0

[MIXING]
;Tank            	Model

[TIMES]
 Duration           	1:00 
 Hydraulic Timestep 	0:05 
 Quality Timestep   	0:05 
 Pattern Timestep   	0:05 
 Pattern Start      	0:00 
 Report Timestep    	0:05 
 Report Start       	0:00 
 Start ClockTime    	0:00:00
 Statistic          	NONE

[REPORT]
 Status             	Yes
 Summary            	No
 Page               	0

[OPTIONS]
 Units              	CMH
 Headloss           	H-W
 Specific Gravity   	1.000000
 Viscosity          	1.000000
 Trials             	40
 Accuracy           	0.00100000
 CHECKFREQ          	2
 MAXCHECK           	10
 DAMPLIMIT          	0.00000000
 Unbalanced         	Continue 10
 Pattern            	1
 Demand Multiplier  	1.0000
 Emitter Exponent   	0.5000
 Quality            	NONE mg/L
 Diffusivity        	1.000000
 Tolerance          	0.01000000

[COORDINATES]
;Node            	X-Coord         	Y-Coord
 1               	20.00           	70.00           
 2               	30.00           	70.00           
 3               	50.00           	70.00           
 4               	70.00           	70.00           
 5               	30.00           	40.00           
 6               	50.00           	40.00           
 7               	70.00           	40.00           
 8               	30.00           	10.00           
 9               	50.00           	10.00           
 12              	70.00           	10.00           
 13              	10.00           	40.00           
 14              	10.00           	10.00           
 15              	10.00           	60.00           
 10              	10.00           	70.00           
 16              	70.00           	23.00           
 11              	49.99           	75.38           

[VERTICES]
;Link            	X-Coord         	Y-Coord

[LABELS]
;X-Coord           Y-Coord          Label & Anchor Node
 6.99             73.63            "Source"                 
 13.48            68.13            "Pump"                 

[BACKDROP]
 DIMENSIONS     	7.00            	6.00            	73.00           	94.00           
 UNITS          	None
 FILE           	
 OFFSET         	0.00            	0.00            

[END]
