[TITLE]     
EPANET     Example     Network     1     
A     simple     example     of     
wall     reactions     are     included.     
[JUNCTIONS]     
1     220.0000     
2     220.0000     
3     220.0000     
4     220.0000     
5     210.0000     
6     210.0000     
7     210.0000     
8     200.0000     
9     200.0000     
12     100.0000     
13     150.0000     
14     200.0000     
15     170.0000     
[RESERVOIRS]     
10     340.0000     
16     240.0000     
[TANKS]     
11     200.0000     10.0000     0.0000     20.0000     50.0000     0.0000     
[PIPES]     
1     1     2     3200.0000     450.0000     100.0000     0.0000     
2     2     3     1600.0000     350.0000     100.0000     0.0000     
3     3     4     1600.0000     250.0000     100.0000     0.0000     
4     5     6     1600.0000     250.0000     100.0000     0.0000     
5     6     7     1600.0000     300.0000     100.0000     0.0000     
6     8     9     1600.0000     150.0000     100.0000     0.0000     
7     2     5     1600.0000     250.0000     100.0000     0.0000     
8     3     6     1600.0000     300.0000     100.0000     0.0000     
9     4     7     1600.0000     200.0000     100.0000     0.0000     
10     5     8     1600.0000     200.0000     100.0000     0.0000     
11     6     9     1600.0000     150.0000     100.0000     0.0000     
12     3     11     1000.0000     400.0000     100.0000     0.0000     
14     12     9     1000.0000     300.0000     100.0000     0.0000     
15     5     13     1000.0000     200.0000     100.0000     0.0000     
16     13     14     1000.0000     400.0000     100.0000     0.0000     
17     14     8     1000.0000     200.0000     100.0000     0.0000     
18     13     15     1000.0000     200.0000     100.0000     0.0000     
[PUMPS]     
13     10     1     HEAD     1     
19     16     7     HEAD     1     
[VALVES]     
[DEMANDS]     
1     1.000000     P1     
2     1.000000     P2     
3     1.000000     P3     
4     1.000000     P4     
5     1.000000     P5     
6     1.000000     P6     
7     1.000000     P7     
8     1.000000     P8     
9     1.000000     P9     
12     1.000000     P12     
13     1.000000     P13     
14     1.000000     P14     
15     1.000000     P15     
[EMITTERS]     
[STATUS]     
[PATTERNS]     
1     1.0000     1.0000     1.0000     1.0000     1.0000     1.0000     
1     1.0000     1.0000     1.0000     1.0000     1.0000     1.0000     
P1     0.0000     0.0000     0.0000     0.0000     0.0000     0.0000     
P1     0.0000     0.0000     0.0000     0.0000     0.0000     0.0000     
P2     36.0441     36.1819     37.9772     38.4465     36.7961     39.0839     
P2     39.0931     39.4084     41.1445     37.7810     37.9995     43.8416     
P3     35.6526     35.4935     36.9504     35.4741     36.7042     38.3812     
P3     37.2182     40.8186     40.6544     41.1604     41.8689     42.9401     
P4     20.6173     20.9490     20.8019     21.7049     21.2461     21.6500     
P4     21.3245     20.2839     25.0856     23.6384     23.2452     23.2956     
P5     35.7414     36.5253     37.2476     36.8575     36.0245     37.6116     
P5     38.7014     40.9965     40.6387     43.1207     42.0652     37.2261     
P6     45.0829     45.6286     46.2104     50.3845     46.7832     47.0511     
P6     48.2152     51.8539     51.4691     46.4279     55.5553     49.8925     
P7     35.7539     35.9055     37.6750     35.7068     36.8186     40.3915     
P7     41.3887     39.5285     42.3814     41.2329     37.5063     43.0236     
P8     20.5263     20.4477     21.1413     21.2159     20.2522     21.7097     
P8     21.7536     22.3078     22.2228     22.3412     23.9844     20.9501     
P9     20.5046     21.0245     21.0238     20.3262     22.8483     22.4613     
P9     21.6167     21.7935     20.2969     25.7948     22.6188     22.6341     
P12     30.8110     30.6927     31.3406     33.2514     33.9357     30.8042     
P12     31.5882     34.0364     34.6977     35.9877     34.7725     33.5736     
P13     40.7164     41.6835     41.4093     40.4725     43.2646     42.4501     
P13     43.7463     46.9490     44.8190     48.2460     45.8361     47.7402     
P14     20.3826     20.5409     20.2982     21.8931     21.1907     22.0211     
P14     22.0507     21.9582     22.9974     22.7336     24.8578     24.1973     
P15     35.8652     36.2840     36.4266     38.4931     37.8644     40.2732     
P15     37.4842     38.8189     41.0549     38.1187     38.0568     37.7413     
[CURVES]
1     0.0000     91.4400     
1     454.2494     89.0016     
1     908.4988     82.2960     
1     1362.7482     70.1040     
1     1816.9976     55.1688     
[CONTROLS]     
[QUALITY]     
1     0.500000     
2     0.500000     
3     0.500000     
4     0.500000     
5     0.500000     
6     0.500000     
7     0.500000     
8     0.500000     
9     0.500000     
10     1.000000     
[SOURCES]     
[MIXING]     
11     MIXED     1.0000     
[REACTIONS]     
ORDER     BULK     1.00     
ORDER     WALL     1     
ORDER     TANK     1.00     
GLOBAL     BULK     -0.500000     
GLOBAL     WALL     -1.000000     
[ENERGY]     
GLOBAL     EFFIC     75.0000     
DEMAND     CHARGE     0.0000     
[TIMES]     
DURATION     1:00:00     
HYDRAULIC     TIMESTEP     0:05:00     
QUALITY     TIMESTEP     0:05:00     
REPORT     TIMESTEP     0:05:00     
REPORT     START     0:00:00     
PATTERN     TIMESTEP     0:05:00     
PATTERN     START     0:00:00     
RULE     TIMESTEP     0:01:00     
START     CLOCKTIME     0:00:00     
STATISTIC     NONE     
[OPTIONS]     
UNITS     CMH     
PRESSURE     METERS     
HEADLOSS     H-W     
PATTERN     1     
UNBALANCED     CONTINUE     10     
QUALITY     NONE     
DEMAND     MULTIPLIER     1.0000     
EMITTER     EXPONENT     0.5000     
VISCOSITY     1.000000     
DIFFUSIVITY     1.000000     
SPECIFIC     GRAVITY     1.000000     
TRIALS     40     
ACCURACY     0.00100000     
TOLERANCE     0.01000000     
CHECKFREQ     2     
MAXCHECK     10     
DAMPLIMIT     0.00000000     
[REPORT]     
PAGESIZE     0     
STATUS     YES     
SUMMARY     NO     
ENERGY     NO     
MESSAGES     YES     
NODES     NONE     
LINKS     NONE     
Elevation     NO     
Demand     PRECISION     2     
Head     PRECISION     2     
Pressure     PRECISION     2     
Quality     NO     
Length     NO     
Diameter     NO     
Flow     PRECISION     2     
Velocity     PRECISION     2     
Headloss     PRECISION     2     
Quality     NO     
State     NO     
Setting     NO     
Reaction     NO     
[COORDINATES]     
1     20.000000     70.000000     
2     30.000000     70.000000     
3     50.000000     70.000000     
4     70.000000     70.000000     
5     30.000000     40.000000     
6     50.000000     40.000000     
7     70.000000     40.000000     
8     30.000000     10.000000     
9     50.000000     10.000000     
12     70.000000     10.000000     
13     10.000000     40.000000     
14     10.000000     10.000000     
15     10.000000     60.000000     
10     10.000000     70.000000     
16     70.000000     23.000000     
11     50.000000     75.000000     
[TAGS]     
[VERTICES]     
;Link     X-Coord     Y-Coord     
[LABELS]     
;X-Coord     Y-Coord     Label     &     Anchor     Node     
6.99     73.63     "Source"     
13.48     68.13     "Pump"     
[BACKDROP]     
DIMENSIONS     7.00     6.00     73.00     94.00     
UNITS     None     
FILE     
OFFSET     0.00     0.00     
[END]     
