[TITLE]     
EPANET     Example     Network     2     
Example     of     modeling     a     5     
Measured     fluoride     data     is     
[JUNCTIONS]     
1     15.2400     
2     30.4800     
3     18.2880     
4     18.2880     
5     30.4800     
6     38.1000     
7     48.7680     
8     33.5280     
9     54.8640     
10     39.6240     
11     56.3880     
12     64.0080     
13     64.0080     
14     60.9600     
15     57.9120     
16     45.7200     
17     54.8640     
18     30.4800     
19     45.7200     
20     51.8160     
21     45.7200     
22     60.9600     
23     70.1040     
24     57.9120     
25     70.1040     
27     39.6240     
28     33.5280     
29     33.5280     
30     39.6240     
31     57.9120     
32     33.5280     
33     54.8640     
34     57.9120     
35     33.5280     
36     33.5280     
[RESERVOIRS]     
[TANKS]     
26     71.6280     17.2822     15.2400     21.3360     15.2400     2780.0002     
[PIPES]     
1     1     2     731.5200     304.8000     100.0000     0.0000     
2     2     5     243.8400     304.8000     100.0000     0.0000     
3     2     3     396.2400     203.2000     100.0000     0.0000     
4     3     4     365.7600     203.2000     100.0000     0.0000     
5     4     5     304.8000     304.8000     100.0000     0.0000     
6     5     6     365.7600     304.8000     100.0000     0.0000     
7     6     7     822.9600     304.8000     100.0000     0.0000     
8     7     8     365.7600     304.8000     140.0000     0.0000     
9     7     9     121.9200     304.8000     100.0000     0.0000     
10     8     10     304.8000     203.2000     140.0000     0.0000     
11     9     11     213.3600     304.8000     100.0000     0.0000     
12     11     12     579.1200     304.8000     100.0000     0.0000     
13     12     13     182.8800     304.8000     100.0000     0.0000     
14     13     14     121.9200     304.8000     100.0000     0.0000     
15     14     15     91.4400     304.8000     100.0000     0.0000     
16     13     16     457.2000     203.2000     100.0000     0.0000     
17     15     17     457.2000     203.2000     100.0000     0.0000     
18     16     17     182.8800     203.2000     100.0000     0.0000     
19     17     18     213.3600     304.8000     100.0000     0.0000     
20     18     32     106.6800     304.8000     100.0000     0.0000     
21     16     19     426.7200     203.2000     100.0000     0.0000     
22     14     20     335.2800     304.8000     100.0000     0.0000     
23     20     21     396.2400     203.2000     100.0000     0.0000     
24     21     22     396.2400     203.2000     100.0000     0.0000     
25     20     22     396.2400     203.2000     100.0000     0.0000     
26     24     23     182.8800     304.8000     100.0000     0.0000     
27     15     24     76.2000     304.8000     100.0000     0.0000     
28     23     25     91.4400     304.8000     100.0000     0.0000     
29     25     26     60.9600     304.8000     100.0000     0.0000     
30     25     31     182.8800     304.8000     100.0000     0.0000     
31     31     27     121.9200     203.2000     100.0000     0.0000     
32     27     29     121.9200     203.2000     100.0000     0.0000     
34     29     28     213.3600     203.2000     100.0000     0.0000     
35     22     33     304.8000     203.2000     100.0000     0.0000     
36     33     34     121.9200     203.2000     100.0000     0.0000     
37     32     19     152.4000     203.2000     100.0000     0.0000     
38     29     35     152.4000     203.2000     100.0000     0.0000     
39     35     30     304.8000     203.2000     100.0000     0.0000     
40     28     35     213.3600     203.2000     100.0000     0.0000     
41     28     36     91.4400     203.2000     100.0000     0.0000     
[PUMPS]     
[VALVES]     
[DEMANDS]     
1     -157.715400     2     
2     1.817000     1     
3     3.179700     1     
4     1.817000     1     
5     1.817000     1     
6     1.135600     1     
7     0.908500     1     
8     2.044100     1     
9     3.179700     1     
10     1.135600     1     
11     7.899400     1     
12     3.634000     1     
13     0.454250     1     
14     0.454250     1     
15     0.454250     1     
16     4.542500     1     
17     4.542500     1     
18     4.542500     1     
19     1.135600     1     
20     4.315400     1     
21     3.634000     1     
22     2.271200     1     
23     1.817000     1     
24     2.498400     1     
25     1.362700     1     
27     1.817000     1     
28     0.000000     1     
29     1.589900     1     
30     0.681370     1     
31     3.861100     1     
32     3.861100     1     
33     0.340690     1     
34     0.340690     1     
35     0.000000     1     
36     0.227120     1     
[EMITTERS]     
[STATUS]     
[PATTERNS]     
1     1.2600     1.0400     0.9700     0.9700     0.8900     1.1900     
1     1.2800     0.6700     0.6700     1.3400     2.4600     0.9700     
1     0.9200     0.6800     1.4300     0.6100     0.3100     0.7800     
1     0.3700     0.6700     1.2600     1.5600     1.1900     1.2600     
1     0.6000     1.1000     1.0300     0.7300     0.8800     1.0600     
1     0.9900     1.7200     1.1200     1.3400     1.1200     0.9700     
1     1.0400     1.1500     0.9100     0.6100     0.6800     0.4600     
1     0.5100     0.7400     1.1200     1.3400     1.2600     0.9700     
1     0.8200     1.3700     1.0300     0.8100     0.8800     0.8100     
1     0.8100     
2     0.9600     0.9600     0.9600     0.9600     0.9600     0.9600     
2     0.6200     0.0000     0.0000     0.0000     0.0000     0.0000     
2     0.8000     1.0000     1.0000     1.0000     1.0000     0.1500     
2     0.0000     0.0000     0.0000     0.0000     0.0000     0.0000     
2     0.5500     0.9200     0.9200     0.9200     0.9200     0.9000     
2     0.9000     0.4500     0.0000     0.0000     0.0000     0.0000     
2     0.0000     0.7000     1.0000     1.0000     1.0000     1.0000     
2     0.2000     0.0000     0.0000     0.0000     0.0000     0.0000     
2     0.0000     0.7400     0.9200     0.9200     0.9200     0.9200     
2     0.9200     
3     0.9800     1.0200     1.0500     0.9900     0.6400     0.4600     
3     0.3500     0.3500     0.3500     0.3500     0.3500     0.3500     
3     0.1700     0.1700     0.1300     0.1300     0.1300     0.1500     
3     0.1500     0.1500     0.1500     0.1500     0.1500     0.1500     
3     0.1500     0.1200     0.1000     0.0800     0.1100     0.0900     
3     0.0900     0.0800     0.0800     0.0800     0.0800     0.0800     
3     0.0800     0.0900     0.0700     0.0700     0.0900     0.0900     
3     0.0900     0.0900     0.0900     0.0900     0.0900     0.0900     
3     0.0900     0.0800     0.3500     0.7200     0.8200     0.9200     
3     1.0000     
[CURVES]
[CONTROLS]     
[QUALITY]     
1     1.000000     
2     1.000000     
3     1.000000     
4     1.000000     
5     1.000000     
6     1.000000     
7     1.000000     
8     1.000000     
9     1.000000     
10     1.000000     
11     1.000000     
12     1.000000     
13     1.000000     
14     1.000000     
15     1.000000     
16     1.000000     
17     1.000000     
18     1.000000     
19     1.000000     
20     1.000000     
21     1.000000     
22     1.000000     
23     1.000000     
24     1.000000     
25     1.000000     
27     1.000000     
28     1.000000     
29     1.000000     
30     1.000000     
31     1.000000     
32     1.000000     
33     1.000000     
34     1.000000     
35     1.000000     
36     1.000000     
26     1.000000     
[SOURCES]     
1     CONCEN     1.000000     3     
[MIXING]     
26     MIXED     1.0000     
[REACTIONS]     
ORDER     BULK     1.00     
ORDER     WALL     1     
ORDER     TANK     1.00     
GLOBAL     BULK     0.000000     
GLOBAL     WALL     0.000000     
[ENERGY]     
GLOBAL     EFFIC     75.0000     
DEMAND     CHARGE     0.0000     
[TIMES]     
DURATION     55:00:00     
HYDRAULIC     TIMESTEP     1:00:00     
QUALITY     TIMESTEP     0:05:00     
REPORT     TIMESTEP     1:00:00     
REPORT     START     0:00:00     
PATTERN     TIMESTEP     1:00:00     
PATTERN     START     0:00:00     
RULE     TIMESTEP     0:06:00     
START     CLOCKTIME     8:00:00     
STATISTIC     NONE     
[OPTIONS]     
UNITS     CMH     
PRESSURE     METERS     
HEADLOSS     H-W     
PATTERN     1     
UNBALANCED     CONTINUE     10     
QUALITY     Fluoride     mg/L     
DEMAND     MULTIPLIER     1.0000     
EMITTER     EXPONENT     0.5000     
VISCOSITY     1.000000     
DIFFUSIVITY     1.000000     
SPECIFIC     GRAVITY     1.000000     
TRIALS     40     
ACCURACY     0.00100000     
TOLERANCE     0.01000000     
CHECKFREQ     2     
MAXCHECK     10     
DAMPLIMIT     0.00000000     
[REPORT]     
PAGESIZE     0     
STATUS     NO     
SUMMARY     NO     
ENERGY     NO     
MESSAGES     YES     
NODES     NONE     
LINKS     NONE     
Elevation     NO     
Demand     PRECISION     2     
Head     PRECISION     2     
Pressure     PRECISION     2     
Quality     NO     
Length     NO     
Diameter     NO     
Flow     PRECISION     2     
Velocity     PRECISION     2     
Headloss     PRECISION     2     
Quality     NO     
State     NO     
Setting     NO     
Reaction     NO     
[COORDINATES]     
1     21.000000     4.000000     
2     19.000000     20.000000     
3     11.000000     21.000000     
4     14.000000     28.000000     
5     19.000000     25.000000     
6     28.000000     23.000000     
7     36.000000     39.000000     
8     38.000000     30.000000     
9     36.000000     42.000000     
10     37.000000     23.000000     
11     37.000000     49.000000     
12     39.000000     60.000000     
13     38.000000     64.000000     
14     38.000000     66.000000     
15     37.000000     69.000000     
16     27.000000     65.000000     
17     27.000000     69.000000     
18     23.000000     68.000000     
19     21.000000     59.000000     
20     45.000000     68.000000     
21     51.000000     62.000000     
22     54.000000     69.000000     
23     35.000000     74.000000     
24     37.000000     71.000000     
25     35.000000     76.000000     
27     39.000000     87.000000     
28     49.000000     85.000000     
29     42.000000     86.000000     
30     47.000000     80.000000     
31     37.000000     80.000000     
32     23.000000     64.000000     
33     56.000000     73.000000     
34     56.000000     77.000000     
35     43.000000     81.000000     
36     53.000000     87.000000     
26     33.000000     76.000000     
[TAGS]     
[VERTICES]     
;Link     X-Coord     Y-Coord     
[LABELS]     
;X-Coord     Y-Coord     Label     &     Anchor     Node     
24.00     7.00     "Pump"     
24.00     4.00     "Station"     
26.76     77.42     "Tank"     
[BACKDROP]     
DIMENSIONS     8.75     -0.15     58.25     91.15     
UNITS     None     
FILE     
OFFSET     0.00     0.00     
[END]     
