[TITLE]
EPANET     Example     Network     2     
Example     of     modeling     a     5     
Measured     fluoride     data     is     

[JUNCTIONS]
;ID              	Elev        	Demand      	Pattern         
 2               	30.4800     	1.817000    	1               	;
 3               	18.2880     	3.179700    	1               	;
 4               	18.2880     	1.817000    	1               	;
 5               	30.4800     	1.817000    	1               	;
 6               	38.1000     	1.135600    	1               	;
 7               	48.7680     	0.908500    	1               	;
 8               	33.5280     	2.044100    	1               	;
 9               	54.8640     	3.179700    	1               	;
 10              	39.6240     	1.135600    	1               	;
 11              	56.3880     	7.899400    	1               	;
 12              	64.0080     	3.634000    	1               	;
 13              	64.0080     	0.454250    	1               	;
 14              	60.9600     	0.454250    	1               	;
 15              	57.9120     	0.454250    	1               	;
 16              	45.7200     	4.542500    	1               	;
 17              	54.8640     	4.542500    	1               	;
 18              	30.4800     	4.542500    	1               	;
 19              	45.7200     	1.135600    	1               	;
 20              	51.8160     	4.315400    	1               	;
 21              	45.7200     	3.634000    	1               	;
 22              	60.9600     	2.271200    	1               	;
 23              	70.1040     	1.817000    	1               	;
 24              	57.9120     	2.498400    	1               	;
 25              	70.1040     	1.362700    	1               	;
 27              	39.6240     	1.817000    	1               	;
 28              	33.5280     	0.000000    	1               	;
 29              	33.5280     	1.589900    	1               	;
 30              	39.6240     	0.681370    	1               	;
 31              	57.9120     	3.861100    	1               	;
 32              	33.5280     	3.861100    	1               	;
 33              	54.8640     	0.340690    	1               	;
 34              	57.9120     	0.340690    	1               	;
 35              	33.5280     	0.000000    	1               	;
 36              	33.5280     	0.227120    	1               	;

[RESERVOIRS]
;ID              	Head        	Pattern         
 37              	100         	                	;

[TANKS]
;ID              	Elevation   	InitLevel   	MinLevel    	MaxLevel    	Diameter    	MinVol      	VolCurve
 26              	71.6280     	17.2822     	15.2400     	21.3360     	15.2400     	2780.0002   	                	;

[PIPES]
;ID              	Node1           	Node2           	Length      	Diameter    	Roughness   	MinorLoss   	Status
 2               	2               	5               	243.8400    	304.8000    	100.0000    	0.0000      	Open  	;
 3               	2               	3               	396.2400    	203.2000    	100.0000    	0.0000      	Open  	;
 4               	3               	4               	365.7600    	203.2000    	100.0000    	0.0000      	Open  	;
 5               	4               	5               	304.8000    	304.8000    	100.0000    	0.0000      	Open  	;
 6               	5               	6               	365.7600    	304.8000    	100.0000    	0.0000      	Open  	;
 7               	6               	7               	822.9600    	304.8000    	100.0000    	0.0000      	Open  	;
 8               	7               	8               	365.7600    	304.8000    	140.0000    	0.0000      	Open  	;
 9               	7               	9               	121.9200    	304.8000    	100.0000    	0.0000      	Open  	;
 10              	8               	10              	304.8000    	203.2000    	140.0000    	0.0000      	Open  	;
 11              	9               	11              	213.3600    	304.8000    	100.0000    	0.0000      	Open  	;
 12              	11              	12              	579.1200    	304.8000    	100.0000    	0.0000      	Open  	;
 13              	12              	13              	182.8800    	304.8000    	100.0000    	0.0000      	Open  	;
 14              	13              	14              	121.9200    	304.8000    	100.0000    	0.0000      	Open  	;
 15              	14              	15              	91.4400     	304.8000    	100.0000    	0.0000      	Open  	;
 16              	13              	16              	457.2000    	203.2000    	100.0000    	0.0000      	Open  	;
 17              	15              	17              	457.2000    	203.2000    	100.0000    	0.0000      	Open  	;
 18              	16              	17              	182.8800    	203.2000    	100.0000    	0.0000      	Open  	;
 19              	17              	18              	213.3600    	304.8000    	100.0000    	0.0000      	Open  	;
 20              	18              	32              	106.6800    	304.8000    	100.0000    	0.0000      	Open  	;
 21              	16              	19              	426.7200    	203.2000    	100.0000    	0.0000      	Open  	;
 22              	14              	20              	335.2800    	304.8000    	100.0000    	0.0000      	Open  	;
 23              	20              	21              	396.2400    	203.2000    	100.0000    	0.0000      	Open  	;
 24              	21              	22              	396.2400    	203.2000    	100.0000    	0.0000      	Open  	;
 25              	20              	22              	396.2400    	203.2000    	100.0000    	0.0000      	Open  	;
 26              	24              	23              	182.8800    	304.8000    	100.0000    	0.0000      	Open  	;
 27              	15              	24              	76.2000     	304.8000    	100.0000    	0.0000      	Open  	;
 28              	23              	25              	91.4400     	304.8000    	100.0000    	0.0000      	Open  	;
 29              	25              	26              	60.9600     	304.8000    	100.0000    	0.0000      	Open  	;
 30              	25              	31              	182.8800    	304.8000    	100.0000    	0.0000      	Open  	;
 31              	31              	27              	121.9200    	203.2000    	100.0000    	0.0000      	Open  	;
 32              	27              	29              	121.9200    	203.2000    	100.0000    	0.0000      	Open  	;
 34              	29              	28              	213.3600    	203.2000    	100.0000    	0.0000      	Open  	;
 35              	22              	33              	304.8000    	203.2000    	100.0000    	0.0000      	Open  	;
 36              	33              	34              	121.9200    	203.2000    	100.0000    	0.0000      	Open  	;
 37              	32              	19              	152.4000    	203.2000    	100.0000    	0.0000      	Open  	;
 38              	29              	35              	152.4000    	203.2000    	100.0000    	0.0000      	Open  	;
 39              	35              	30              	304.8000    	203.2000    	100.0000    	0.0000      	Open  	;
 40              	28              	35              	213.3600    	203.2000    	100.0000    	0.0000      	Open  	;
 41              	28              	36              	91.4400     	203.2000    	100.0000    	0.0000      	Open  	;
 1               	2               	37              	1000        	12          	100         	0           	Open  	;

[PUMPS]
;ID              	Node1           	Node2           	Parameters

[VALVES]
;ID              	Node1           	Node2           	Diameter    	Type	Setting     	MinorLoss   

[TAGS]

[DEMANDS]
;Junction        	Demand      	Pattern         	Category

[STATUS]
;ID              	Status/Setting

[PATTERNS]
;ID              	Multipliers
;
 1               	1.2600      	1.0400      	0.9700      	0.9700      	0.8900      	1.1900      
 1               	1.2800      	0.6700      	0.6700      	1.3400      	2.4600      	0.9700      
 1               	0.9200      	0.6800      	1.4300      	0.6100      	0.3100      	0.7800      
 1               	0.3700      	0.6700      	1.2600      	1.5600      	1.1900      	1.2600      
 1               	0.6000      	1.1000      	1.0300      	0.7300      	0.8800      	1.0600      
 1               	0.9900      	1.7200      	1.1200      	1.3400      	1.1200      	0.9700      
 1               	1.0400      	1.1500      	0.9100      	0.6100      	0.6800      	0.4600      
 1               	0.5100      	0.7400      	1.1200      	1.3400      	1.2600      	0.9700      
 1               	0.8200      	1.3700      	1.0300      	0.8100      	0.8800      	0.8100      
 1               	0.8100      
;
 2               	0.9600      	0.9600      	0.9600      	0.9600      	0.9600      	0.9600      
 2               	0.6200      	0.0000      	0.0000      	0.0000      	0.0000      	0.0000      
 2               	0.8000      	1.0000      	1.0000      	1.0000      	1.0000      	0.1500      
 2               	0.0000      	0.0000      	0.0000      	0.0000      	0.0000      	0.0000      
 2               	0.5500      	0.9200      	0.9200      	0.9200      	0.9200      	0.9000      
 2               	0.9000      	0.4500      	0.0000      	0.0000      	0.0000      	0.0000      
 2               	0.0000      	0.7000      	1.0000      	1.0000      	1.0000      	1.0000      
 2               	0.2000      	0.0000      	0.0000      	0.0000      	0.0000      	0.0000      
 2               	0.0000      	0.7400      	0.9200      	0.9200      	0.9200      	0.9200      
 2               	0.9200      
;
 3               	0.9800      	1.0200      	1.0500      	0.9900      	0.6400      	0.4600      
 3               	0.3500      	0.3500      	0.3500      	0.3500      	0.3500      	0.3500      
 3               	0.1700      	0.1700      	0.1300      	0.1300      	0.1300      	0.1500      
 3               	0.1500      	0.1500      	0.1500      	0.1500      	0.1500      	0.1500      
 3               	0.1500      	0.1200      	0.1000      	0.0800      	0.1100      	0.0900      
 3               	0.0900      	0.0800      	0.0800      	0.0800      	0.0800      	0.0800      
 3               	0.0800      	0.0900      	0.0700      	0.0700      	0.0900      	0.0900      
 3               	0.0900      	0.0900      	0.0900      	0.0900      	0.0900      	0.0900      
 3               	0.0900      	0.0800      	0.3500      	0.7200      	0.8200      	0.9200      
 3               	1.0000      

[CURVES]
;ID              	X-Value     	Y-Value

[CONTROLS]

[RULES]

[ENERGY]
 Global Efficiency  	75.0000
 Global Price       	0
 Demand Charge      	0.0000

[EMITTERS]
;Junction        	Coefficient

[QUALITY]
;Node            	InitQual
 2               	1.000000
 3               	1.000000
 4               	1.000000
 5               	1.000000
 6               	1.000000
 7               	1.000000
 8               	1.000000
 9               	1.000000
 10              	1.000000
 11              	1.000000
 12              	1.000000
 13              	1.000000
 14              	1.000000
 15              	1.000000
 16              	1.000000
 17              	1.000000
 18              	1.000000
 19              	1.000000
 20              	1.000000
 21              	1.000000
 22              	1.000000
 23              	1.000000
 24              	1.000000
 25              	1.000000
 27              	1.000000
 28              	1.000000
 29              	1.000000
 30              	1.000000
 31              	1.000000
 32              	1.000000
 33              	1.000000
 34              	1.000000
 35              	1.000000
 36              	1.000000
 26              	1.000000

[SOURCES]
;Node            	Type        	Quality     	Pattern

[REACTIONS]
;Type     	Pipe/Tank       	Coefficient


[REACTIONS]
 Order Bulk            	1.00
 Order Tank            	1.00
 Order Wall            	1
 Global Bulk           	0.000000
 Global Wall           	0.000000
 Limiting Potential    	0
 Roughness Correlation 	0

[MIXING]
;Tank            	Model

[TIMES]
 Duration           	55:00 
 Hydraulic Timestep 	1:00 
 Quality Timestep   	0:05 
 Pattern Timestep   	1:00 
 Pattern Start      	0:00 
 Report Timestep    	1:00 
 Report Start       	0:00 
 Start ClockTime    	8:00:00
 Statistic          	NONE

[REPORT]
 Status             	No
 Summary            	No
 Page               	0

[OPTIONS]
 Units              	CMH
 Headloss           	H-W
 Specific Gravity   	1.000000
 Viscosity          	1.000000
 Trials             	40
 Accuracy           	0.00100000
 CHECKFREQ          	2
 MAXCHECK           	10
 DAMPLIMIT          	0.00000000
 Unbalanced         	Continue 10
 Pattern            	1
 Demand Multiplier  	1.0000
 Emitter Exponent   	0.5000
 Quality            	Fluoride mg/L
 Diffusivity        	1.000000
 Tolerance          	0.01000000

[COORDINATES]
;Node            	X-Coord         	Y-Coord
 2               	19.00           	20.00           
 3               	11.00           	21.00           
 4               	14.00           	28.00           
 5               	19.00           	25.00           
 6               	28.00           	23.00           
 7               	36.00           	39.00           
 8               	38.00           	30.00           
 9               	36.00           	42.00           
 10              	37.00           	23.00           
 11              	37.00           	49.00           
 12              	39.00           	60.00           
 13              	38.00           	64.00           
 14              	38.00           	66.00           
 15              	37.00           	69.00           
 16              	27.00           	65.00           
 17              	27.00           	69.00           
 18              	23.00           	68.00           
 19              	21.00           	59.00           
 20              	45.00           	68.00           
 21              	51.00           	62.00           
 22              	54.00           	69.00           
 23              	35.00           	74.00           
 24              	37.00           	71.00           
 25              	35.00           	76.00           
 27              	39.00           	87.00           
 28              	49.00           	85.00           
 29              	42.00           	86.00           
 30              	47.00           	80.00           
 31              	37.00           	80.00           
 32              	23.00           	64.00           
 33              	56.00           	73.00           
 34              	56.00           	77.00           
 35              	43.00           	81.00           
 36              	53.00           	87.00           
 37              	19.03           	13.16           
 26              	33.00           	76.00           

[VERTICES]
;Link            	X-Coord         	Y-Coord

[LABELS]
;X-Coord           Y-Coord          Label & Anchor Node
 26.76            77.42            "Tank"                 

[BACKDROP]
 DIMENSIONS     	8.75            	-0.15           	58.25           	91.15           
 UNITS          	None
 FILE           	
 OFFSET         	0.00            	0.00            

[END]
