[TITLE]     
EPANET     Example     Network     3     
Example     showing     how     the     
system     changes     over     time.     
[JUNCTIONS]     
10     44.8056     
15     9.7536     
20     39.3192     
35     3.8100     
40     40.2031     
50     35.5092     
60     0.0000     
601     0.0000     
61     0.0000     
101     12.8016     
103     13.1064     
105     8.6868     
107     6.7056     
109     6.1874     
111     3.0480     
113     0.6096     
115     4.2672     
117     4.1453     
119     0.6096     
120     0.0000     
121     -0.6096     
123     3.3528     
125     3.3528     
127     17.0688     
129     15.5448     
131     1.8288     
139     9.4488     
141     1.2192     
143     -1.3716     
145     0.3048     
147     5.6388     
149     4.8768     
151     10.2108     
153     20.1778     
157     3.9929     
159     1.8288     
161     1.2192     
163     1.5240     
164     1.5240     
166     -0.6096     
167     -1.5240     
169     -1.5240     
171     -1.2192     
173     -1.2192     
177     2.4384     
179     2.4384     
181     2.4384     
183     3.3528     
184     4.8768     
185     4.8768     
187     3.8100     
189     1.2192     
191     7.6200     
193     5.4864     
195     4.7244     
197     7.0104     
199     -0.6096     
201     0.0305     
203     0.6096     
204     6.4008     
205     6.4008     
206     0.3048     
207     2.7432     
208     4.8768     
209     -0.6096     
211     2.1336     
213     2.1336     
215     2.1336     
217     1.8288     
219     1.2192     
225     2.4384     
229     3.2004     
231     1.5240     
237     4.2672     
239     3.9624     
241     3.9624     
243     4.2672     
247     5.4864     
249     5.4864     
251     9.1440     
253     10.9728     
255     8.2296     
257     5.1816     
259     7.6200     
261     0.0000     
263     0.0000     
265     0.0000     
267     6.4008     
269     0.0000     
271     1.8288     
273     2.4384     
275     3.0480     
[RESERVOIRS]     
River     67.0560     
Lake     50.9016     
[TANKS]     
1     40.2031     3.9929     0.0305     9.7841     25.9080     16.0684     
2     35.5092     7.1628     1.9812     12.2834     15.2400     361.4000     
3     39.3192     8.8392     1.2192     10.8204     49.9872     2392.6684     
[PIPES]     
20     3     20     30.1752     2514.6000     199.0000     0.0000     
40     1     40     30.1752     2514.6000     199.0000     0.0000     
50     2     50     30.1752     2514.6000     199.0000     0.0000     
60     River     60     375.2088     609.6000     140.0000     0.0000     
101     10     101     4328.1600     457.2000     110.0000     0.0000     
103     101     103     411.4800     406.4000     130.0000     0.0000     
105     101     105     774.1920     304.8000     130.0000     0.0000     
107     105     107     448.0560     304.8000     130.0000     0.0000     
109     103     109     1200.9120     406.4000     130.0000     0.0000     
111     109     111     609.6000     304.8000     130.0000     0.0000     
112     115     111     353.5680     304.8000     130.0000     0.0000     
113     111     113     512.0640     304.8000     130.0000     0.0000     
114     115     113     609.6000     203.2000     130.0000     0.0000     
115     107     115     594.3600     203.2000     130.0000     0.0000     
116     113     193     505.9680     304.8000     130.0000     0.0000     
117     263     105     830.5800     304.8000     130.0000     0.0000     
119     115     117     664.4640     304.8000     130.0000     0.0000     
120     119     120     222.5040     304.8000     130.0000     0.0000     
121     120     117     569.9760     304.8000     130.0000     0.0000     
122     121     120     624.8400     203.2000     130.0000     0.0000     
123     121     119     609.6000     762.0000     141.0000     0.0000     
125     123     121     457.2000     762.0000     141.0000     0.0000     
129     121     125     283.4640     609.6000     130.0000     0.0000     
131     125     127     987.5520     609.6000     130.0000     0.0000     
133     20     127     239.2680     508.0000     130.0000     0.0000     
135     127     129     274.3200     609.6000     130.0000     0.0000     
137     129     131     1975.1040     406.4000     130.0000     0.0000     
145     129     139     838.2000     203.2000     130.0000     0.0000     
147     139     141     624.8400     203.2000     130.0000     0.0000     
149     143     141     426.7200     203.2000     130.0000     0.0000     
151     15     143     502.9200     203.2000     130.0000     0.0000     
153     145     141     1069.8480     304.8000     130.0000     0.0000     
155     147     145     670.5600     304.8000     130.0000     0.0000     
159     147     149     268.2240     304.8000     130.0000     0.0000     
161     149     151     310.8960     203.2000     130.0000     0.0000     
163     151     153     356.6160     304.8000     130.0000     0.0000     
169     125     153     1389.8880     203.2000     130.0000     0.0000     
171     119     151     1054.6080     304.8000     130.0000     0.0000     
173     119     157     633.9840     762.0000     141.0000     0.0000     
175     157     159     886.9680     762.0000     141.0000     0.0000     
177     159     161     609.6000     762.0000     141.0000     0.0000     
179     161     163     131.0640     762.0000     141.0000     0.0000     
180     163     164     45.7200     355.6000     130.0000     0.0000     
181     164     166     149.3520     355.6000     130.0000     0.0000     
183     265     169     179.8320     762.0000     141.0000     0.0000     
185     167     169     18.2880     203.2000     130.0000     0.0000     
186     187     204     30.4495     203.2000     130.0000     0.0000     
187     169     171     387.0960     762.0000     141.0000     0.0000     
189     171     173     15.2400     762.0000     141.0000     0.0000     
191     271     171     231.6480     609.6000     130.0000     0.0000     
193     35     181     9.1440     609.6000     130.0000     0.0000     
195     181     177     9.1440     304.8000     130.0000     0.0000     
197     177     179     9.1440     304.8000     130.0000     0.0000     
199     179     183     64.0080     304.8000     130.0000     0.0000     
201     40     179     362.7120     304.8000     130.0000     0.0000     
202     185     184     30.4495     203.2000     130.0000     0.0000     
203     183     185     155.4480     203.2000     130.0000     0.0000     
204     184     205     1380.7440     304.8000     130.0000     0.0000     
205     204     185     403.8600     304.8000     130.0000     0.0000     
207     189     183     411.4800     304.8000     130.0000     0.0000     
209     189     187     152.4000     203.2000     130.0000     0.0000     
211     169     269     196.9008     304.8000     130.0000     0.0000     
213     191     187     780.2880     304.8000     130.0000     0.0000     
215     267     189     374.9040     304.8000     130.0000     0.0000     
217     191     193     158.4960     304.8000     130.0000     0.0000     
219     193     195     109.7280     304.8000     130.0000     0.0000     
221     161     195     701.0400     203.2000     130.0000     0.0000     
223     197     191     350.5200     304.8000     130.0000     0.0000     
225     111     197     850.3920     304.8000     130.0000     0.0000     
229     173     199     1219.2000     609.6000     141.0000     0.0000     
231     199     201     192.0240     609.6000     141.0000     0.0000     
233     201     203     36.5760     609.6000     130.0000     0.0000     
235     199     273     220.9800     304.8000     130.0000     0.0000     
237     205     207     365.7600     304.8000     130.0000     0.0000     
238     207     206     137.1600     304.8000     130.0000     0.0000     
239     275     207     435.8640     304.8000     130.0000     0.0000     
240     206     208     155.4480     304.8000     130.0000     0.0000     
241     208     209     269.7480     304.8000     130.0000     0.0000     
243     209     211     368.8080     406.4000     130.0000     0.0000     
245     211     213     301.7520     406.4000     130.0000     0.0000     
247     213     215     1306.0680     406.4000     130.0000     0.0000     
249     215     217     505.9680     406.4000     130.0000     0.0000     
251     217     219     624.8400     355.6000     130.0000     0.0000     
257     217     225     475.4880     304.8000     130.0000     0.0000     
261     213     229     670.5600     203.2000     130.0000     0.0000     
263     229     231     597.4080     304.8000     130.0000     0.0000     
269     211     237     633.9840     304.8000     130.0000     0.0000     
271     237     229     240.7920     203.2000     130.0000     0.0000     
273     237     239     155.4480     304.8000     130.0000     0.0000     
275     239     241     10.6680     304.8000     130.0000     0.0000     
277     241     243     670.5600     304.8000     130.0000     0.0000     
281     241     247     135.6360     254.0000     130.0000     0.0000     
283     239     249     131.0640     304.8000     130.0000     0.0000     
285     247     249     3.0480     304.8000     130.0000     0.0000     
287     247     255     423.6720     254.0000     130.0000     0.0000     
289     50     255     281.9400     254.0000     130.0000     0.0000     
291     255     253     335.2800     254.0000     130.0000     0.0000     
293     255     251     335.2800     203.2000     130.0000     0.0000     
295     249     251     441.9600     304.8000     130.0000     0.0000     
297     120     257     196.5960     203.2000     130.0000     0.0000     
299     257     259     106.6800     203.2000     130.0000     0.0000     
301     259     263     426.7200     203.2000     130.0000     0.0000     
303     257     261     426.7200     203.2000     130.0000     0.0000     
305     117     261     196.5960     304.8000     130.0000     0.0000     
307     261     263     106.6800     304.8000     130.0000     0.0000     
309     265     267     481.5840     203.2000     130.0000     0.0000     
311     193     267     356.6160     304.8000     130.0000     0.0000     
313     269     189     196.9008     304.8000     130.0000     0.0000     
315     181     271     79.2480     609.6000     130.0000     0.0000     
317     273     275     679.7040     203.2000     130.0000     0.0000     
319     273     205     196.5960     304.8000     130.0000     0.0000     
321     163     265     365.7600     762.0000     141.0000     0.0000     
323     201     275     91.4400     304.8000     130.0000     0.0000     
325     269     271     393.1920     203.2000     130.0000     0.0000     
329     61     123     13868.4000     762.0000     140.0000     0.0000     
330     60     601     0.3048     762.0000     140.0000     0.0000     CLOSED     
333     601     61     0.3048     762.0000     140.0000     0.0000     
[PUMPS]     
10     Lake     10     HEAD     1     
335     60     61     HEAD     2     
[VALVES]     
[DEMANDS]     
10     0.000000     1     
15     0.227120     3     
20     0.000000     1     
35     0.227120     4     
40     0.000000     1     
50     0.000000     1     
60     0.000000     1     
601     0.000000     1     
61     0.000000     1     
101     43.142300     1     
103     30.253000     1     
105     30.745900     1     
107     12.410100     1     
109     52.556700     1     
111     32.238100     1     
113     4.544800     1     
115     11.833200     1     
117     26.734800     1     
119     40.003500     1     
120     0.000000     1     
121     9.455200     1     
123     0.227120     2     
125     10.356900     1     
127     4.011000     1     
129     0.000000     1     
131     9.709600     1     
139     1.337800     1     
141     2.237200     1     
143     1.408200     1     
145     6.275500     1     
147     1.941900     1     
149     6.148300     1     
151     32.815000     1     
153     10.032100     1     
157     11.762800     1     
159     9.384800     1     
161     3.588600     1     
163     2.139500     1     
164     0.000000     1     
166     0.590520     1     
167     3.306900     1     
169     0.000000     1     
171     8.935100     1     
173     0.000000     1     
177     13.211800     1     
179     0.000000     1     
181     0.000000     1     
183     0.000000     1     
184     0.000000     1     
185     5.825700     1     
187     0.000000     1     
189     24.511300     1     
191     18.601500     1     
193     16.196300     1     
195     0.000000     1     
197     3.870200     1     
199     27.100500     1     
201     10.132000     1     
203     0.227120     5     
204     0.000000     1     
205     14.844900     1     
206     0.000000     1     
207     15.760200     1     
208     0.000000     1     
209     0.197600     1     
211     1.969200     1     
213     3.166100     1     
215     20.938600     1     
217     5.501000     1     
219     9.384800     1     
225     5.178400     1     
229     14.576900     1     
231     3.743000     1     
237     3.545400     1     
239     10.132000     1     
241     0.000000     1     
243     0.985720     1     
247     15.985000     1     
249     0.000000     1     
251     5.487300     1     
253     12.382800     1     
255     9.173600     1     
257     0.000000     1     
259     0.000000     1     
261     0.000000     1     
263     0.000000     1     
265     0.000000     1     
267     0.000000     1     
269     0.000000     1     
271     0.000000     1     
273     0.000000     1     
275     0.000000     1     
[EMITTERS]     
[STATUS]     
330     closed     
10     closed     
[PATTERNS]     
1     1.3400     1.9400     1.4600     1.4400     0.7600     0.9200     
1     0.8500     1.0700     0.9600     1.1000     1.0800     1.1900     
1     1.1600     1.0800     0.9600     0.8300     0.7900     0.7400     
1     0.6400     0.6400     0.8500     0.9600     1.2400     1.6700     
2     0.0000     0.0000     0.0000     0.0000     0.0000     1219.0000     
2     0.0000     0.0000     0.0000     1866.0000     1836.0000     1818.0000     
2     1818.0000     1822.0000     1822.0000     1817.0000     1824.0000     1816.0000     
2     1833.0000     1817.0000     1830.0000     1814.0000     1840.0000     1859.0000     
3     620.0000     620.0000     620.0000     620.0000     620.0000     360.0000     
3     360.0000     0.0000     0.0000     0.0000     0.0000     360.0000     
3     360.0000     360.0000     360.0000     360.0000     0.0000     0.0000     
3     0.0000     0.0000     0.0000     0.0000     360.0000     360.0000     
4     1637.0000     1706.0000     1719.0000     1719.0000     1791.0000     1819.0000     
4     1777.0000     1842.0000     1815.0000     1825.0000     1856.0000     1801.0000     
4     1819.0000     1733.0000     1664.0000     1620.0000     1613.0000     1620.0000     
4     1616.0000     1647.0000     1627.0000     1627.0000     1671.0000     1668.0000     
5     4439.0000     4531.0000     4511.0000     4582.0000     4531.0000     4582.0000     
5     4572.0000     4613.0000     4643.0000     4643.0000     4592.0000     4613.0000     
5     4531.0000     4521.0000     4449.0000     4439.0000     4449.0000     4460.0000     
5     4439.0000     4419.0000     4368.0000     4399.0000     4470.0000     4480.0000     
[CURVES]
1     0.0000     31.6992     
1     454.2494     28.0416     
1     908.4988     19.2024     
2     0.0000     60.9600     
2     1816.9976     42.0624     
2     3179.7458     26.2128     
[CONTROLS]     
LINK     10     1.0000     AT     TIME     1.0000     HOURS     
LINK     10     0.0000     AT     TIME     15.0000     HOURS     
LINK     335     1.0000     IF     NODE     1     BELOW     5.2121     
LINK     335     0.0000     IF     NODE     1     ABOVE     5.8217     
LINK     330     closed     IF     NODE     1     BELOW     5.2121     
LINK     330     open     IF     NODE     1     ABOVE     5.8217     
[QUALITY]     
[SOURCES]     
[MIXING]     
1     MIXED     1.0000     
2     MIXED     1.0000     
3     MIXED     1.0000     
[REACTIONS]     
ORDER     BULK     1.00     
ORDER     WALL     1     
ORDER     TANK     1.00     
GLOBAL     BULK     0.000000     
GLOBAL     WALL     0.000000     
[ENERGY]     
GLOBAL     EFFIC     75.0000     
DEMAND     CHARGE     0.0000     
[TIMES]     
DURATION     24:00:00     
HYDRAULIC     TIMESTEP     1:00:00     
QUALITY     TIMESTEP     0:05:00     
REPORT     TIMESTEP     1:00:00     
REPORT     START     0:00:00     
PATTERN     TIMESTEP     1:00:00     
PATTERN     START     0:00:00     
RULE     TIMESTEP     0:06:00     
START     CLOCKTIME     0:00:00     
STATISTIC     NONE     
[OPTIONS]     
UNITS     CMH     
PRESSURE     METERS     
HEADLOSS     H-W     
PATTERN     1     
UNBALANCED     CONTINUE     10     
QUALITY     TRACE     Lake     
DEMAND     MULTIPLIER     1.0000     
EMITTER     EXPONENT     0.5000     
VISCOSITY     1.000000     
DIFFUSIVITY     1.000000     
SPECIFIC     GRAVITY     1.000000     
TRIALS     40     
ACCURACY     0.00100000     
TOLERANCE     0.01000000     
CHECKFREQ     2     
MAXCHECK     10     
DAMPLIMIT     0.00000000     
[REPORT]     
PAGESIZE     0     
STATUS     YES     
SUMMARY     NO     
ENERGY     NO     
MESSAGES     YES     
NODES     NONE     
LINKS     NONE     
Elevation     NO     
Demand     PRECISION     2     
Head     PRECISION     2     
Pressure     PRECISION     2     
Quality     NO     
Length     NO     
Diameter     NO     
Flow     PRECISION     2     
Velocity     PRECISION     2     
Headloss     PRECISION     2     
Quality     NO     
State     NO     
Setting     NO     
Reaction     NO     
[COORDINATES]     
10     9.000000     27.850000     
15     38.680000     23.760000     
20     29.440000     26.910000     
35     25.460000     10.520000     
40     27.020000     9.810000     
50     33.010000     3.010000     
60     23.900000     29.940000     
601     23.000000     29.490000     
61     23.710000     29.030000     
101     13.810000     22.940000     
103     12.960000     21.310000     
105     16.970000     21.280000     
107     18.450000     20.460000     
109     17.640000     18.920000     
111     20.210000     17.530000     
113     22.040000     16.610000     
115     20.980000     19.180000     
117     21.690000     21.280000     
119     23.700000     22.760000     
120     22.080000     23.100000     
121     23.540000     25.500000     
123     23.370000     27.310000     
125     24.590000     25.640000     
127     29.290000     26.400000     
129     30.320000     26.390000     
131     37.890000     29.550000     
139     33.280000     24.540000     
141     35.680000     23.080000     
143     37.470000     21.970000     
145     33.020000     19.290000     
147     30.240000     20.380000     
149     29.620000     20.740000     
151     28.290000     21.390000     
153     28.130000     22.630000     
157     24.850000     20.160000     
159     23.120000     17.500000     
161     25.100000     15.280000     
163     25.390000     14.980000     
164     25.980000     15.140000     
166     26.480000     15.130000     
167     25.880000     12.980000     
169     25.680000     12.740000     
171     26.650000     11.800000     
173     26.870000     11.590000     
177     26.900000     11.650000     
179     25.710000     10.400000     
181     25.720000     10.740000     
183     25.450000     10.180000     
184     25.150000     9.520000     
185     25.010000     9.670000     
187     23.640000     11.040000     
189     24.150000     11.370000     
191     22.100000     14.070000     
193     22.880000     14.350000     
195     23.180000     14.720000     
197     20.970000     15.180000     
199     29.420000     8.440000     
201     30.890000     8.570000     
203     31.140000     8.890000     
204     23.800000     10.900000     
205     29.200000     6.460000     
206     31.660000     6.640000     
207     31.000000     6.610000     
208     32.540000     6.810000     
209     33.760000     6.590000     
211     34.200000     5.540000     
213     35.260000     6.160000     
215     39.950000     8.730000     
217     42.110000     8.670000     
219     44.860000     9.320000     
225     43.530000     7.380000     
229     36.160000     3.490000     
231     38.380000     2.540000     
237     35.370000     3.080000     
239     35.760000     2.310000     
241     35.870000     2.110000     
243     37.040000     0.000000     
247     35.020000     2.050000     
249     35.020000     1.810000     
251     34.150000     1.100000     
253     32.170000     1.880000     
255     33.510000     2.450000     
257     21.170000     23.320000     
259     20.800000     23.400000     
261     20.790000     21.450000     
263     20.320000     21.570000     
265     25.390000     13.600000     
267     23.380000     12.950000     
269     25.030000     12.140000     
271     25.970000     11.000000     
273     29.160000     7.380000     
275     31.070000     8.290000     
River     24.150000     31.060000     
Lake     8.000000     27.530000     
1     27.460000     9.840000     
2     32.990000     3.450000     
3     29.410000     27.270000     
[TAGS]     
[VERTICES]     
;Link     X-Coord     Y-Coord     
[LABELS]     
;X-Coord     Y-Coord     Label     &     Anchor     Node     
8.00     29.42     "LAKE"     
25.00     31.10     "RIVER"     
[BACKDROP]     
DIMENSIONS     6.16     -1.55     46.70     32.61     
UNITS     None     
FILE     
OFFSET     0.00     0.00     
[END]     
