[TITLE]


[JUNCTIONS]
;ID              	Elev        	Demand      	Pattern         
 B10             	111.9767    	0.000000    	                	;
 B11             	112.3345    	0.000000    	                	;
 B6              	121.1108    	0.000000    	                	;
 B7              	114.4141    	0.000000    	                	;
 B9              	118.5752    	0.000000    	                	;
 C1              	122.5349    	0.570780    	                	;
 C10             	121.1519    	1.826500    	                	;
 C11             	113.6280    	10.388100   	                	;
 C12             	114.7472    	8.447500    	                	;
 C13             	121.1704    	9.360700    	                	;
 C14             	124.2994    	3.881300    	                	;
 C15             	111.2380    	5.022800    	                	;
 C16             	111.8528    	2.739700    	                	;
 C17             	124.1455    	1.369900    	                	;
 C18             	107.6378    	2.283100    	                	;
 C19             	119.2705    	3.881300    	                	;
 C2              	115.9310    	2.739700    	                	;
 C20             	120.0295    	3.881300    	                	;
 C21             	109.9031    	6.849300    	                	;
 C22             	107.3711    	2.283100    	                	;
 C23             	122.7996    	8.790000    	                	;
 C24             	122.5033    	1.141600    	                	;
 C25             	121.8901    	3.196300    	                	;
 C26             	109.1905    	2.739700    	                	;
 C27             	114.1360    	5.707800    	                	;
 C28             	115.3484    	2.853900    	                	;
 C29             	117.8208    	7.305900    	                	;
 C3              	109.3261    	4.337900    	                	;
 C30             	106.0137    	5.022800    	                	;
 C31             	113.9824    	1.826500    	                	;
 C32             	123.2279    	3.082200    	                	;
 C33             	124.3623    	0.114160    	                	;
 C34             	121.9714    	6.735200    	                	;
 C35             	118.6451    	3.196300    	                	;
 C36             	116.4112    	5.365300    	                	;
 C37             	117.8177    	4.908700    	                	;
 C38             	116.9711    	1.940600    	                	;
 C39             	120.9961    	1.141600    	                	;
 C4              	108.1788    	3.196300    	                	;
 C40             	115.7295    	1.141600    	                	;
 C41             	119.2162    	1.369900    	                	;
 C43             	115.8561    	7.762600    	                	;
 C44             	107.0914    	0.114160    	                	;
 C45             	119.8895    	3.767100    	                	;
 C46             	105.3640    	1.903900    	                	;
 C47             	104.4135    	10.958900   	                	;
 C48             	109.0737    	0.342460    	                	;
 C49             	113.5596    	3.767100    	                	;
 C5              	110.3455    	9.018300    	                	;
 C50             	112.5656    	4.566200    	                	;
 C51             	121.9173    	0.114160    	                	;
 C52             	117.1116    	2.168900    	                	;
 C54             	113.8601    	1.940600    	                	;
 C55             	113.8602    	1.141600    	                	;
 C56             	118.1083    	1.141600    	                	;
 C6              	122.7731    	2.853900    	                	;
 C7              	122.4547    	3.082200    	                	;
 C8              	118.2902    	17.009100   	                	;
 C9              	111.1906    	2.283100    	                	;
 chng_J1         	122.2937    	1.255700    	                	;
 NJ10            	123.1425    	0.000000    	                	;
 NJ100           	118.9630    	0.000000    	                	;
 NJ101           	118.9640    	0.000000    	                	;
 NJ102           	121.1145    	0.000000    	                	;
 NJ103           	121.9482    	0.000000    	                	;
 NJ104           	123.3607    	0.000000    	                	;
 NJ105           	123.5528    	0.000000    	                	;
 NJ106           	124.0274    	0.000000    	                	;
 NJ107           	116.6698    	0.000000    	                	;
 NJ108           	114.3574    	0.000000    	                	;
 NJ109           	114.3248    	0.000000    	                	;
 NJ11            	105.3689    	0.000000    	                	;
 NJ110           	114.1633    	0.000000    	                	;
 NJ111           	115.0117    	0.000000    	                	;
 NJ112           	115.3118    	0.000000    	                	;
 NJ113           	115.8259    	0.000000    	                	;
 NJ114           	115.8478    	0.000000    	                	;
 NJ115           	115.8523    	0.000000    	                	;
 NJ116           	116.1432    	0.000000    	                	;
 NJ117           	108.7049    	0.000000    	                	;
 NJ118           	107.4157    	0.000000    	                	;
 NJ119           	111.6827    	0.000000    	                	;
 NJ12            	114.4053    	0.000000    	                	;
 NJ122           	108.9792    	0.000000    	                	;
 NJ123           	106.8460    	0.000000    	                	;
 NJ125           	123.6783    	0.000000    	                	;
 NJ13            	115.1317    	0.000000    	                	;
 NJ14            	114.7866    	0.000000    	                	;
 NJ16            	116.8854    	0.000000    	                	;
 NJ17            	116.9424    	0.000000    	                	;
 NJ18            	117.7715    	0.000000    	                	;
 NJ2             	116.3099    	0.000000    	                	;
 NJ22            	118.8367    	0.000000    	                	;
 NJ23            	119.3056    	0.000000    	                	;
 NJ24            	121.0509    	0.000000    	                	;
 NJ25            	121.4577    	0.000000    	                	;
 NJ27            	122.3023    	0.000000    	                	;
 NJ28            	121.7818    	0.000000    	                	;
 NJ29            	121.6444    	0.000000    	                	;
 NJ3             	115.9188    	0.000000    	                	;
 NJ30            	120.3502    	0.000000    	                	;
 NJ31            	116.5106    	0.000000    	                	;
 NJ32            	112.5927    	1.027400    	                	;
 NJ33            	117.8023    	0.000000    	                	;
 NJ37            	109.9418    	0.000000    	                	;
 NJ41            	105.5040    	0.265090    	                	;
 NJ5             	114.4035    	0.000000    	                	;
 NJ50            	121.3608    	0.228310    	                	;
 NJ52            	123.4864    	0.000000    	                	;
 NJ55            	122.0413    	0.000000    	                	;
 NJ6             	114.7762    	0.000000    	                	;
 NJ60            	115.5425    	0.000000    	                	;
 NJ61            	114.1375    	0.000000    	                	;
 NJ62            	114.3501    	0.000000    	                	;
 NJ63            	116.9918    	0.000000    	                	;
 NJ64            	116.5927    	0.000000    	                	;
 NJ65            	118.6326    	0.000000    	                	;
 NJ66            	118.9237    	0.000000    	                	;
 NJ67            	118.1645    	0.000000    	                	;
 NJ68            	118.5285    	0.000000    	                	;
 NJ69            	118.4921    	0.000000    	                	;
 NJ7             	105.6647    	0.000000    	                	;
 NJ70            	118.4080    	0.000000    	                	;
 NJ71            	119.1862    	0.000000    	                	;
 NJ72            	120.4721    	0.000000    	                	;
 NJ73            	119.8169    	0.000000    	                	;
 NJ74            	120.2868    	0.000000    	                	;
 NJ77            	120.8396    	0.000000    	                	;
 NJ78            	120.4873    	0.000000    	                	;
 NJ80            	119.1416    	0.000000    	                	;
 NJ81            	118.1459    	0.000000    	                	;
 NJ82            	117.8083    	0.000000    	                	;
 NJ83            	117.3840    	0.000000    	                	;
 NJ85            	119.7250    	0.000000    	                	;
 NJ86            	117.4353    	0.000000    	                	;
 NJ87            	117.3592    	0.000000    	                	;
 NJ88            	117.3383    	0.000000    	                	;
 NJ89            	121.2733    	0.000000    	                	;
 NJ9             	124.1175    	0.000000    	                	;
 NJ90            	121.1736    	0.000000    	                	;
 NJ92            	123.0250    	0.000000    	                	;
 NJ93            	122.9508    	0.000000    	                	;
 NJ94            	115.5178    	0.000000    	                	;
 NJ95            	115.8710    	0.000000    	                	;
 NJ96            	116.5980    	0.000000    	                	;
 NJ97            	117.8580    	0.000000    	                	;
 NJ98            	117.0194    	0.000000    	                	;
 NJ99            	120.5778    	0.000000    	                	;
 Tank1           	108.9426    	0.837140    	                	;
 Tank2           	106.7812    	0.837140    	                	;
 Tank3           	113.6940    	0.837140    	                	;
 Tank4           	122.2860    	0.837140    	                	;
 Tank5           	123.5839    	0.837140    	                	;
 Tank6           	123.0433    	0.837140    	                	;
 AN1             	116.3755    	3.653000    	                	;
 WW1025          	105.1919    	0.000000    	                	;
 WW1182          	105.5344    	0.000000    	                	;
 WW1197          	105.5857    	0.000000    	                	;
 WW1291          	105.7021    	0.000000    	                	;
 WW1318          	105.8208    	0.000000    	                	;
 WW1325          	105.8202    	0.000000    	                	;
 WW1419          	106.0221    	0.000000    	                	;
 WW1475          	106.1469    	0.000000    	                	;
 WW1487          	106.1364    	0.000000    	                	;
 WW1493          	106.1616    	0.000000    	                	;
 WW1693          	106.4813    	0.000000    	                	;
 WW1709          	106.5041    	0.000000    	                	;
 WW1925          	106.6052    	0.000000    	                	;
 WW2055          	106.6845    	0.000000    	                	;
 WW2103          	106.7018    	0.000000    	                	;
 WW2432          	106.8918    	0.000000    	                	;
 WW2448          	107.0127    	0.000000    	                	;
 WW2450          	107.1466    	0.000000    	                	;
 WW2476          	107.4436    	0.000000    	                	;
 WW2486          	107.6126    	0.000000    	                	;
 WW2489          	107.6233    	0.000000    	                	;
 WW2511          	107.9286    	0.000000    	                	;
 WW2521          	108.0349    	0.000000    	                	;
 WW2530          	108.0546    	0.000000    	                	;
 WW2535          	108.1059    	0.000000    	                	;
 WW2548          	108.3124    	0.000000    	                	;
 WW2549          	108.3480    	0.000000    	                	;
 WW2571          	108.5089    	0.000000    	                	;
 WW2574          	108.5440    	0.000000    	                	;
 WW2576          	108.5953    	0.000000    	                	;
 WW2582          	108.6373    	0.000000    	                	;
 WW2599          	108.7909    	0.000000    	                	;
 WW2618          	108.9246    	0.000000    	                	;
 WW2632          	109.0202    	0.000000    	                	;
 WW2634          	109.0476    	0.000000    	                	;
 WW2659          	109.2186    	0.000000    	                	;
 WW2680          	109.3060    	0.000000    	                	;
 WW2681          	109.2611    	0.000000    	                	;
 WW2692          	109.4454    	0.000000    	                	;
 WW2695          	109.4302    	0.000000    	                	;
 WW2702          	109.5311    	0.000000    	                	;
 WW2710          	109.4808    	0.000000    	                	;
 WW2711          	109.5442    	0.000000    	                	;
 WW2712          	109.5442    	0.000000    	                	;
 WW2763          	109.7000    	0.000000    	                	;
 WW2776          	109.7696    	0.000000    	                	;
 WW2793          	109.8539    	0.000000    	                	;
 WW2817          	109.8942    	0.000000    	                	;
 WW2838          	109.9430    	0.000000    	                	;
 WW2894          	110.1735    	0.000000    	                	;
 WW2906          	110.1894    	0.000000    	                	;
 WW2971          	110.5552    	0.000000    	                	;
 WW2998          	110.6360    	0.000000    	                	;
 WW3058          	110.9590    	0.000000    	                	;
 WW3065          	110.9957    	0.000000    	                	;
 WW3086          	111.0948    	0.000000    	                	;
 WW3094          	111.2067    	0.000000    	                	;
 WW3105          	111.2811    	0.000000    	                	;
 WW3145          	111.4592    	0.000000    	                	;
 WW3177          	111.5586    	0.000000    	                	;
 WW3184          	111.5624    	0.000000    	                	;
 WW3185          	111.6125    	0.000000    	                	;
 WW3215          	111.6977    	0.000000    	                	;
 WW3219          	111.7717    	0.000000    	                	;
 WW3260          	111.8822    	0.000000    	                	;
 WW3282          	112.0454    	0.000000    	                	;
 WW3339          	112.1444    	0.000000    	                	;
 WW3563          	112.2121    	0.000000    	                	;
 WW3580          	112.2581    	0.000000    	                	;
 WW3589          	112.3018    	0.000000    	                	;
 WW3592          	112.2475    	0.000000    	                	;
 WW3594          	112.2482    	0.000000    	                	;
 WW3604          	112.2912    	0.000000    	                	;
 WW3610          	112.2751    	0.000000    	                	;
 WW3621          	112.3202    	0.000000    	                	;
 WW3629          	112.3375    	0.000000    	                	;
 WW3646          	112.4006    	0.000000    	                	;
 WW3665          	112.4339    	0.000000    	                	;
 WW3671          	112.4610    	0.000000    	                	;
 WW3677          	112.5040    	0.000000    	                	;
 WW3693          	112.6562    	0.000000    	                	;
 WW3744          	112.9395    	0.000000    	                	;
 WW3747          	112.9607    	0.000000    	                	;
 WW3750          	112.9666    	0.000000    	                	;
 WW3766          	113.0060    	0.000000    	                	;
 WW3781          	113.0712    	0.000000    	                	;
 WW3796          	113.1054    	0.000000    	                	;
 WW3823          	113.1534    	0.000000    	                	;
 WW3834          	113.1803    	0.000000    	                	;
 WW3842          	113.2651    	0.000000    	                	;
 WW3843          	113.3112    	0.000000    	                	;
 WW3887          	113.5971    	0.000000    	                	;
 WW3895          	113.6383    	0.000000    	                	;
 WW3904          	113.7033    	0.000000    	                	;
 WW3906          	113.7359    	0.000000    	                	;
 WW3913          	113.7432    	0.000000    	                	;
 WW3920          	113.7889    	0.000000    	                	;
 WW3926          	113.7891    	0.000000    	                	;
 WW3946          	113.9256    	0.000000    	                	;
 WW3959          	113.9491    	0.000000    	                	;
 WW4026          	114.1590    	0.000000    	                	;
 WW4042          	114.2191    	0.000000    	                	;
 WW4069          	114.3282    	0.000000    	                	;
 WW4114          	114.4923    	0.000000    	                	;
 WW4116          	114.5103    	0.000000    	                	;
 WW4158          	114.7922    	0.000000    	                	;
 WW4167          	114.9394    	0.000000    	                	;
 WW4179          	114.9523    	0.000000    	                	;
 WW4181          	114.9589    	0.000000    	                	;
 WW4184          	114.9791    	0.000000    	                	;
 WW4205          	115.0425    	0.000000    	                	;
 WW4209          	114.9923    	0.000000    	                	;
 WW4213          	115.0697    	0.000000    	                	;
 WW4233          	115.2066    	0.000000    	                	;
 WW4235          	115.2173    	0.000000    	                	;
 WW4260          	115.4168    	0.000000    	                	;
 WW4346          	115.8261    	0.000000    	                	;
 WW4375          	115.9022    	0.000000    	                	;
 WW4376          	115.9147    	0.000000    	                	;
 WW4433          	116.1738    	0.000000    	                	;
 WW4442          	116.1463    	0.000000    	                	;
 WW4444          	116.1707    	0.000000    	                	;
 WW4503          	116.4314    	0.000000    	                	;
 WW4505          	116.4602    	0.000000    	                	;
 WW4510          	116.5142    	0.000000    	                	;
 WW4518          	116.5544    	0.000000    	                	;
 WW4544          	116.6189    	0.000000    	                	;
 WW4546          	116.6150    	0.000000    	                	;
 WW4566          	116.6724    	0.000000    	                	;
 WW4640          	117.1956    	0.000000    	                	;
 WW4669          	117.2711    	0.000000    	                	;
 WW4708          	117.3174    	0.000000    	                	;
 WW4714          	117.3898    	0.000000    	                	;
 WW4727          	117.4349    	0.000000    	                	;
 WW4766          	117.7269    	0.000000    	                	;
 WW4767          	117.6888    	0.000000    	                	;
 WW4821          	117.8831    	0.000000    	                	;
 WW4860          	118.0324    	0.000000    	                	;
 WW4922          	118.3700    	0.000000    	                	;
 WW4948          	118.4778    	0.000000    	                	;
 WW4995          	118.7857    	0.000000    	                	;
 WW5010          	118.8193    	0.000000    	                	;
 WW5024          	118.8912    	0.000000    	                	;
 WW5042          	118.9240    	0.000000    	                	;
 WW5080          	119.1197    	0.000000    	                	;
 WW5123          	119.2059    	0.000000    	                	;
 WW5185          	119.3679    	0.000000    	                	;
 WW5192          	119.4406    	0.000000    	                	;
 WW5207          	119.4642    	0.000000    	                	;
 WW5217          	119.5132    	0.000000    	                	;
 WW5243          	119.5818    	0.000000    	                	;
 WW5278          	119.7602    	0.000000    	                	;
 WW5291          	119.7657    	0.000000    	                	;
 WW5296          	119.8002    	0.000000    	                	;
 WW5312          	119.9160    	0.000000    	                	;
 WW5316          	119.9184    	0.000000    	                	;
 WW5324          	119.9112    	0.000000    	                	;
 WW5326          	119.9115    	0.000000    	                	;
 WW5412          	120.2935    	0.000000    	                	;
 WW5450          	120.5650    	0.000000    	                	;
 WW5494          	120.6531    	0.000000    	                	;
 WW5498          	120.6892    	0.000000    	                	;
 WW5504          	120.7126    	0.000000    	                	;
 WW5516          	120.7378    	0.000000    	                	;
 WW5538          	120.8758    	0.000000    	                	;
 WW5544          	120.9250    	0.000000    	                	;
 WW5556          	121.0024    	0.000000    	                	;
 WW5557          	120.9667    	0.000000    	                	;
 WW5573          	121.1518    	0.000000    	                	;
 WW5583          	121.1617    	0.000000    	                	;
 WW5587          	121.2040    	0.000000    	                	;
 WW5607          	121.3086    	0.000000    	                	;
 WW5620          	121.3156    	0.000000    	                	;
 WW5621          	121.3472    	0.000000    	                	;
 WW5624          	121.3840    	0.000000    	                	;
 WW5643          	121.4334    	0.000000    	                	;
 WW5687          	121.5496    	0.000000    	                	;
 WW5690          	121.5807    	0.000000    	                	;
 WW5705          	121.5129    	0.000000    	                	;
 WW5708          	121.6033    	0.000000    	                	;
 WW5717          	121.6445    	0.000000    	                	;
 WW5730          	121.7067    	0.000000    	                	;
 WW5736          	121.7659    	0.000000    	                	;
 WW5762          	121.8089    	0.000000    	                	;
 WW5776          	121.9440    	0.000000    	                	;
 WW5782          	121.9674    	0.000000    	                	;
 WW5789          	121.9343    	0.000000    	                	;
 WW5790          	121.9832    	0.000000    	                	;
 WW5814          	122.0843    	0.000000    	                	;
 WW5816          	122.1900    	0.000000    	                	;
 WW5817          	122.0888    	0.000000    	                	;
 WW5820          	122.0969    	0.000000    	                	;
 WW5840          	122.2482    	0.000000    	                	;
 WW5847          	122.1724    	0.000000    	                	;
 WW5849          	122.2525    	0.000000    	                	;
 WW5851          	122.2937    	0.000000    	                	;
 WW5866          	122.3243    	0.000000    	                	;
 WW5868          	122.2542    	0.000000    	                	;
 WW5872          	122.3555    	0.000000    	                	;
 WW5886          	122.4692    	0.000000    	                	;
 WW5897          	122.6243    	0.000000    	                	;
 WW5898          	122.6451    	0.000000    	                	;
 WW5900          	122.6677    	0.000000    	                	;
 WW5902          	122.7068    	0.000000    	                	;
 WW5911          	122.7981    	0.000000    	                	;
 WW5912          	122.9371    	0.000000    	                	;
 WW5921          	122.9370    	0.000000    	                	;
 WW5924          	123.0483    	0.000000    	                	;
 WW5925          	122.9925    	0.000000    	                	;
 WW5934          	123.1460    	0.000000    	                	;
 WW5945          	123.1846    	0.000000    	                	;
 WW5946          	123.1906    	0.000000    	                	;
 WW5951          	123.2271    	0.000000    	                	;
 WW5956          	123.2760    	0.000000    	                	;
 WW5962          	123.2974    	0.000000    	                	;
 WW5968          	123.3283    	0.000000    	                	;
 WW598           	104.8450    	0.000000    	                	;
 WW5988          	123.3812    	0.000000    	                	;
 WW6375          	123.4848    	0.000000    	                	;
 WW6419          	123.5553    	0.000000    	                	;
 WW6529          	123.8797    	0.000000    	                	;
 WW6556          	124.1330    	0.000000    	                	;
 WW6602          	124.3548    	0.000000    	                	;
 C42             	112.4339    	6.278500    	                	;

[RESERVOIRS]
;ID              	Head        	Pattern         
 NR1             	169.5600    	                	;
 NR6             	169.4000    	                	;

[TANKS]
;ID              	Elevation   	InitLevel   	MinLevel    	MaxLevel    	Diameter    	MinVol      	VolCurve

[PIPES]
;ID              	Node1           	Node2           	Length      	Diameter    	Roughness   	MinorLoss   	Status
 WW3594_WW3592   	WW3594          	WW3592          	3.1532      	450.0000    	0.0120      	0.0000      	Open  	;
 WW5326_WW5324   	WW5326          	WW5324          	6.9017      	450.0000    	0.0120      	0.0000      	Open  	;
 WW5956_WW5945   	WW5956          	WW5945          	377.9492    	450.0000    	0.0120      	0.0000      	Open  	;
 WW2712_WW2702   	WW2712          	WW2702          	415.9255    	450.0000    	0.0120      	0.0000      	Open  	;
 WW5951_WW5968   	WW5951          	WW5968          	418.4696    	450.0000    	0.0120      	0.0000      	Open  	;
 WW4213_WW4167   	WW4213          	WW4167          	537.0740    	450.0000    	0.0120      	0.0000      	Open  	;
 WW2103_WW2055   	WW2103          	WW2055          	538.8715    	450.0000    	0.0120      	0.0000      	Open  	;
 WW5583_WW5620   	WW5583          	WW5620          	638.2421    	450.0000    	0.0120      	0.0000      	Open  	;
 WW5312_WW5278   	WW5312          	WW5278          	862.8704    	450.0000    	0.0120      	0.0000      	Open  	;
 WW3671_WW3594   	WW3671          	WW3594          	875.1640    	450.0000    	0.0120      	0.0000      	Open  	;
 WW5736_WW5782   	WW5736          	WW5782          	903.9139    	450.0000    	0.0120      	0.0000      	Open  	;
 WW2906_WW2838   	WW2906          	WW2838          	1016.1541   	450.0000    	0.0120      	0.0000      	Open  	;
 WW5817_WW5762   	WW5817          	WW5762          	1153.1082   	450.0000    	0.0120      	0.0000      	Open  	;
 WW4042_WW4114   	WW4042          	WW4114          	1162.3095   	450.0000    	0.0120      	0.0000      	Open  	;
 WW5776_WW5717   	WW5776          	WW5717          	1233.9661   	450.0000    	0.0120      	0.0000      	Open  	;
 WW3904_WW3913   	WW3904          	WW3913          	1242.7743   	450.0000    	0.0120      	0.0000      	Open  	;
 WW3913_WW3904   	WW3913          	WW3904          	1242.7746   	450.0000    	0.0120      	0.0000      	Open  	;
 WW3629_WW3693   	WW3629          	WW3693          	1310.7700   	450.0000    	0.0120      	0.0000      	Open  	;
 WW4860_WW4922   	WW4860          	WW4922          	1392.1235   	450.0000    	0.0120      	0.0000      	Open  	;
 WW3842_WW3843   	WW3842          	WW3843          	1492.4032   	450.0000    	0.0120      	0.0000      	Open  	;
 WW2634_WW2695   	WW2634          	WW2695          	1574.1868   	450.0000    	0.0120      	0.0000      	Open  	;
 WW5968_WW5956   	WW5968          	WW5956          	1596.7394   	450.0000    	0.0120      	0.0000      	Open  	;
 WW5289_WW5185   	WW5291          	WW5185          	1640.4700   	450.0000    	0.0120      	0.0000      	Open  	;
 WW5851_WW5776   	WW5851          	WW5776          	2006.0872   	450.0000    	0.0120      	0.0000      	Open  	;
 WW5866_WW5849   	WW5866          	WW5849          	2059.3407   	450.0000    	0.0120      	0.0000      	Open  	;
 WW5911_WW5868   	WW5911          	WW5868          	2244.9595   	450.0000    	0.0120      	0.0000      	Open  	;
 WW6375_WW6529   	WW6375          	WW6529          	2360.3231   	450.0000    	0.0120      	0.0000      	Open  	;
 WW4766_WW4669   	WW4766          	WW4669          	2540.6048   	450.0000    	0.0120      	0.0000      	Open  	;
 WW2548_WW2489   	WW2548          	WW2489          	2835.3321   	450.0000    	0.0120      	0.0000      	Open  	;
 WW5816_WW5912   	WW5816          	WW5912          	3079.7763   	450.0000    	0.0120      	0.0000      	Open  	;
 WW2582_WW2574   	WW2582          	WW2574          	3114.4988   	450.0000    	0.0120      	0.0000      	Open  	;
 WW5921_WW5820   	WW5921          	WW5820          	3458.3794   	450.0000    	0.0120      	0.0000      	Open  	;
 WW5814_WW5925   	WW5814          	WW5925          	3743.6017   	450.0000    	0.0120      	0.0000      	Open  	;
 NP4             	WW598           	WW1025          	5554.4000   	450.0000    	0.0120      	0.0000      	Open  	;
 NP7             	WW5817          	WW5820          	230.6800    	450.0000    	0.0120      	0.0000      	Open  	;
 NP8             	WW5820          	WW5868          	4649.1800   	450.0000    	0.0120      	0.0000      	Open  	;
 NP29            	WW5962          	WW5988          	2451.7400   	450.0000    	0.0120      	0.0000      	Open  	;
 NP30            	WW5925          	WW5921          	1627.3000   	450.0000    	0.0120      	0.0000      	Open  	;
 NP31            	WW5814          	WW5817          	1493.5200   	450.0000    	0.0120      	0.0000      	Open  	;
 NP32            	WW5921          	WW5911          	4074.4800   	450.0000    	0.0120      	0.0000      	Open  	;
 NP33            	WW5868          	WW5847          	2091.8500   	450.0000    	0.0120      	0.0000      	Open  	;
 NP38            	WW5705          	WW5847          	2716.3700   	450.0000    	0.0120      	0.0000      	Open  	;
 NP39            	WW5705          	WW5762          	6660.6500   	450.0000    	0.0120      	0.0000      	Open  	;
 NP40            	WW5945          	WW5925          	5567.5400   	450.0000    	0.0120      	0.0000      	Open  	;
 NP41            	WW5789          	WW5762          	7977.5800   	450.0000    	0.0120      	0.0000      	Open  	;
 NP42            	WW5789          	WW5946          	5180.6300   	450.0000    	0.0120      	0.0000      	Open  	;
 NP43            	WW5946          	WW5945          	448.8900    	450.0000    	0.0120      	0.0000      	Open  	;
 NP47            	WW5583          	WW5557          	5939.7300   	450.0000    	0.0120      	0.0000      	Open  	;
 NP48            	WW5291          	WW5557          	6130.9200   	450.0000    	0.0120      	0.0000      	Open  	;